1AFK_PAP_A_125


 39 41  0  0  0  0  0  0  0  0999 V2000
   37.6735   -7.4610   19.2165 C   0  0  0  0  0  0  0  0  0  0  0  0
   37.0396   -6.5885   18.2750 O   0  0  0  0  0  0  0  0  0  0  0  0
   38.5555   -8.4399   18.3943 C   0  0  0  0  0  0  0  0  0  0  0  0
   38.7243   -7.6588   17.0967 C   0  0  0  0  0  0  0  0  0  0  0  0
   39.0894   -8.5373   16.0092 O   0  0  0  0  0  0  0  0  0  0  0  0
   37.2654   -7.1708   17.0004 C   0  0  0  0  0  0  0  0  0  0  0  0
   38.4534   -9.2678   15.9561 H   0  0  0  0  0  0  0  0  0  0  0  0
   36.9904   -6.0748   16.0441 N   0  0  0  0  0  0  0  0  0  0  0  0
   36.1411   -6.2199   14.9757 C   0  0  0  0  0  0  0  0  0  0  0  0
   36.0294   -5.1556   14.2375 N   0  0  0  0  0  0  0  0  0  0  0  0
   36.8826   -4.1877   14.8578 C   0  0  0  0  0  0  0  0  0  0  0  0
   37.1874   -2.7976   14.5317 C   0  0  0  0  0  0  0  0  0  0  0  0
   36.7223   -2.1965   13.4193 N   0  0  0  0  0  0  0  0  0  0  0  0
   38.0323   -2.1340   15.3639 N   0  0  0  0  0  0  0  0  0  0  0  0
   38.5413   -2.8050   16.4076 C   0  0  0  0  0  0  0  0  0  0  0  0
   38.3576   -4.0829   16.8198 N   0  0  0  0  0  0  0  0  0  0  0  0
   37.4848   -4.7452   15.9806 C   0  0  0  0  0  0  0  0  0  0  0  0
   36.1103   -2.6793   12.8181 H   0  0  0  0  0  0  0  0  0  0  0  0
   36.9945   -1.2743   13.2077 H   0  0  0  0  0  0  0  0  0  0  0  0
   37.8248   -9.6808   18.1750 O   0  0  0  0  0  0  0  0  0  0  0  0
   38.5699  -11.1936   18.4452 P   0  0  0  0  0  0  0  0  0  0  0  0
   37.5494  -12.1078   17.8749 O   0  0  0  0  0  0  0  0  0  0  0  0
   39.8254  -11.0800   17.6601 O   0  0  0  0  0  0  0  0  0  0  0  0
   38.8114  -11.2837   19.9174 O   0  0  0  0  0  0  0  0  0  0  0  0
   39.6122  -11.0250   16.7155 H   0  0  0  0  0  0  0  0  0  0  0  0
   37.9622  -11.3558   20.3806 H   0  0  0  0  0  0  0  0  0  0  0  0
   38.4690   -6.5705   20.1254 C   0  0  0  0  0  0  0  0  0  0  0  0
   37.5267   -5.7125   20.7379 O   0  0  0  0  0  0  0  0  0  0  0  0
   37.6872   -5.2721   22.2970 P   0  0  0  0  0  0  0  0  0  0  0  0
   36.7320   -6.1100   23.0810 O   0  0  0  0  0  0  0  0  0  0  0  0
   39.1296   -5.3123   22.6603 O   0  0  0  0  0  0  0  0  0  0  0  0
   39.2366   -5.0513   23.5883 H   0  0  0  0  0  0  0  0  0  0  0  0
   37.0035   -3.6961   22.3718 O   0  0  0  0  0  0  0  0  0  0  0  0
   37.2728   -2.2877   23.1803 P   0  0  0  0  0  0  0  0  0  0  0  0
   38.6104   -1.8393   22.7434 O   0  0  0  0  0  0  0  0  0  0  0  0
   36.1398   -1.4078   22.7343 O   0  0  0  0  0  0  0  0  0  0  0  0
   37.2038   -2.6514   24.6149 O   0  0  0  0  0  0  0  0  0  0  0  0
   36.2142   -0.5417   23.1647 H   0  0  0  0  0  0  0  0  0  0  0  0
   37.3550   -1.8610   25.1564 H   0  0  0  0  0  0  0  0  0  0  0  0
 34 35  2  0  0  0
 34 36  1  0  0  0
 34 37  1  0  0  0
 34 33  1  0  0  0
 29 30  2  0  0  0
 29 31  1  0  0  0
 29 33  1  0  0  0
 29 28  1  0  0  0
 28 27  1  0  0  0
 27  1  1  0  0  0
  1  2  1  0  0  0
  1  3  1  0  0  0
  2  6  1  0  0  0
  3 20  1  0  0  0
  3  4  1  0  0  0
 20 21  1  0  0  0
 21 22  2  0  0  0
 21 23  1  0  0  0
 21 24  1  0  0  0
  4  5  1  0  0  0
  4  6  1  0  0  0
  6  8  1  0  0  0
  8  9  1  0  0  0
  8 17  1  0  0  0
  9 10  2  0  0  0
 10 11  1  0  0  0
 11 12  1  0  0  0
 11 17  2  0  0  0
 12 13  1  0  0  0
 12 14  2  0  0  0
 14 15  1  0  0  0
 15 16  2  0  0  0
 16 17  1  0  0  0
 36 38  1  0  0  0
 37 39  1  0  0  0
 31 32  1  0  0  0
 23 25  1  0  0  0
 24 26  1  0  0  0
  5  7  1  0  0  0
 13 18  1  0  0  0
 13 19  1  0  0  0
M  END
> <minimizedAffinity>
-7.66194

$$$$
1AFK_PAP_A_125


 39 41  0  0  0  0  0  0  0  0999 V2000
   38.7277   -4.7458   20.0380 C   0  0  0  0  0  0  0  0  0  0  0  0
   38.4651   -5.0318   18.6601 O   0  0  0  0  0  0  0  0  0  0  0  0
   38.7642   -6.1107   20.7782 C   0  0  0  0  0  0  0  0  0  0  0  0
   39.0388   -7.0620   19.6199 C   0  0  0  0  0  0  0  0  0  0  0  0
   38.6463   -8.4114   19.9560 O   0  0  0  0  0  0  0  0  0  0  0  0
   38.0739   -6.3957   18.6195 C   0  0  0  0  0  0  0  0  0  0  0  0
   37.7269   -8.4131   20.2652 H   0  0  0  0  0  0  0  0  0  0  0  0
   38.2213   -6.7758   17.1964 N   0  0  0  0  0  0  0  0  0  0  0  0
   39.1454   -7.6956   16.7675 C   0  0  0  0  0  0  0  0  0  0  0  0
   39.1387   -7.8961   15.4830 N   0  0  0  0  0  0  0  0  0  0  0  0
   38.1127   -7.0323   14.9823 C   0  0  0  0  0  0  0  0  0  0  0  0
   37.5993   -6.7983   13.6357 C   0  0  0  0  0  0  0  0  0  0  0  0
   38.1494   -7.3630   12.5431 N   0  0  0  0  0  0  0  0  0  0  0  0
   36.5728   -5.9173   13.5054 N   0  0  0  0  0  0  0  0  0  0  0  0
   36.1208   -5.3116   14.6133 C   0  0  0  0  0  0  0  0  0  0  0  0
   36.5045   -5.4223   15.9082 N   0  0  0  0  0  0  0  0  0  0  0  0
   37.5349   -6.3316   16.0354 C   0  0  0  0  0  0  0  0  0  0  0  0
   38.8929   -8.0009   12.6402 H   0  0  0  0  0  0  0  0  0  0  0  0
   37.8078   -7.1377   11.6477 H   0  0  0  0  0  0  0  0  0  0  0  0
   37.4630   -6.3692   21.3796 O   0  0  0  0  0  0  0  0  0  0  0  0
   36.9574   -5.5158   22.7699 P   0  0  0  0  0  0  0  0  0  0  0  0
   36.1586   -6.5605   23.4577 O   0  0  0  0  0  0  0  0  0  0  0  0
   38.2455   -5.1725   23.4244 O   0  0  0  0  0  0  0  0  0  0  0  0
   36.2178   -4.3142   22.2770 O   0  0  0  0  0  0  0  0  0  0  0  0
   38.6824   -5.9850   23.7243 H   0  0  0  0  0  0  0  0  0  0  0  0
   35.3878   -4.5938   21.8601 H   0  0  0  0  0  0  0  0  0  0  0  0
   40.0443   -4.0261   20.0608 C   0  0  0  0  0  0  0  0  0  0  0  0
   40.3270   -3.7929   21.4265 O   0  0  0  0  0  0  0  0  0  0  0  0
   40.1075   -2.3207   22.0858 P   0  0  0  0  0  0  0  0  0  0  0  0
   40.7799   -2.3418   23.4186 O   0  0  0  0  0  0  0  0  0  0  0  0
   40.5214   -1.2870   21.0987 O   0  0  0  0  0  0  0  0  0  0  0  0
   40.3945   -0.4049   21.4818 H   0  0  0  0  0  0  0  0  0  0  0  0
   38.4333   -2.2682   22.4745 O   0  0  0  0  0  0  0  0  0  0  0  0
   37.4580   -1.5123   23.5641 P   0  0  0  0  0  0  0  0  0  0  0  0
   38.2193   -0.3279   24.0099 O   0  0  0  0  0  0  0  0  0  0  0  0
   36.2225   -1.2006   22.7684 O   0  0  0  0  0  0  0  0  0  0  0  0
   37.2310   -2.5133   24.6326 O   0  0  0  0  0  0  0  0  0  0  0  0
   35.5789   -0.7470   23.3349 H   0  0  0  0  0  0  0  0  0  0  0  0
   36.6581   -2.1321   25.3162 H   0  0  0  0  0  0  0  0  0  0  0  0
 34 35  2  0  0  0
 34 36  1  0  0  0
 34 37  1  0  0  0
 34 33  1  0  0  0
 29 30  2  0  0  0
 29 31  1  0  0  0
 29 33  1  0  0  0
 29 28  1  0  0  0
 28 27  1  0  0  0
 27  1  1  0  0  0
  1  2  1  0  0  0
  1  3  1  0  0  0
  2  6  1  0  0  0
  3 20  1  0  0  0
  3  4  1  0  0  0
 20 21  1  0  0  0
 21 22  2  0  0  0
 21 23  1  0  0  0
 21 24  1  0  0  0
  4  5  1  0  0  0
  4  6  1  0  0  0
  6  8  1  0  0  0
  8  9  1  0  0  0
  8 17  1  0  0  0
  9 10  2  0  0  0
 10 11  1  0  0  0
 11 12  1  0  0  0
 11 17  2  0  0  0
 12 13  1  0  0  0
 12 14  2  0  0  0
 14 15  1  0  0  0
 15 16  2  0  0  0
 16 17  1  0  0  0
 36 38  1  0  0  0
 37 39  1  0  0  0
 31 32  1  0  0  0
 23 25  1  0  0  0
 24 26  1  0  0  0
  5  7  1  0  0  0
 13 18  1  0  0  0
 13 19  1  0  0  0
M  END
> <minimizedAffinity>
-7.57645

$$$$
1AFK_PAP_A_125


 39 41  0  0  0  0  0  0  0  0999 V2000
   38.3516   -4.6991   17.8865 C   0  0  0  0  0  0  0  0  0  0  0  0
   39.0658   -3.4692   18.0488 O   0  0  0  0  0  0  0  0  0  0  0  0
   38.3634   -5.0252   16.3680 C   0  0  0  0  0  0  0  0  0  0  0  0
   39.5524   -4.1940   15.9017 C   0  0  0  0  0  0  0  0  0  0  0  0
   39.4820   -3.9443   14.4802 O   0  0  0  0  0  0  0  0  0  0  0  0
   39.2251   -2.9427   16.7403 C   0  0  0  0  0  0  0  0  0  0  0  0
   38.6174   -3.5630   14.2614 H   0  0  0  0  0  0  0  0  0  0  0  0
   40.2994   -1.9340   16.8805 N   0  0  0  0  0  0  0  0  0  0  0  0
   41.5925   -2.2684   17.1969 C   0  0  0  0  0  0  0  0  0  0  0  0
   42.3971   -1.2512   17.2881 N   0  0  0  0  0  0  0  0  0  0  0  0
   41.5792   -0.1103   17.0076 C   0  0  0  0  0  0  0  0  0  0  0  0
   41.8793    1.3168   16.9347 C   0  0  0  0  0  0  0  0  0  0  0  0
   43.0894    1.8188   17.2487 N   0  0  0  0  0  0  0  0  0  0  0  0
   40.8590    2.1512   16.6035 N   0  0  0  0  0  0  0  0  0  0  0  0
   39.6502    1.6109   16.3899 C   0  0  0  0  0  0  0  0  0  0  0  0
   39.2301    0.3233   16.4332 N   0  0  0  0  0  0  0  0  0  0  0  0
   40.2750   -0.5200   16.7524 C   0  0  0  0  0  0  0  0  0  0  0  0
   43.8269    1.2122   17.4883 H   0  0  0  0  0  0  0  0  0  0  0  0
   43.2362    2.7922   17.2386 H   0  0  0  0  0  0  0  0  0  0  0  0
   37.1220   -4.5604   15.7642 O   0  0  0  0  0  0  0  0  0  0  0  0
   36.5497   -5.2423   14.3068 P   0  0  0  0  0  0  0  0  0  0  0  0
   35.2461   -5.7924   14.7545 O   0  0  0  0  0  0  0  0  0  0  0  0
   36.4626   -4.0617   13.4101 O   0  0  0  0  0  0  0  0  0  0  0  0
   37.5858   -6.2276   13.8710 O   0  0  0  0  0  0  0  0  0  0  0  0
   35.7782   -3.4571   13.7372 H   0  0  0  0  0  0  0  0  0  0  0  0
   37.6007   -6.9755   14.4885 H   0  0  0  0  0  0  0  0  0  0  0  0
   39.0893   -5.7108   18.7137 C   0  0  0  0  0  0  0  0  0  0  0  0
   39.2844   -5.1019   19.9749 O   0  0  0  0  0  0  0  0  0  0  0  0
   38.4907   -5.6356   21.2923 P   0  0  0  0  0  0  0  0  0  0  0  0
   37.6913   -6.8209   20.8618 O   0  0  0  0  0  0  0  0  0  0  0  0
   39.4657   -5.8033   22.4038 O   0  0  0  0  0  0  0  0  0  0  0  0
   39.0028   -6.1214   23.1947 H   0  0  0  0  0  0  0  0  0  0  0  0
   37.3023   -4.4308   21.5966 O   0  0  0  0  0  0  0  0  0  0  0  0
   36.7413   -3.5693   22.8823 P   0  0  0  0  0  0  0  0  0  0  0  0
   37.8420   -3.5806   23.8668 O   0  0  0  0  0  0  0  0  0  0  0  0
   36.4405   -2.2204   22.2933 O   0  0  0  0  0  0  0  0  0  0  0  0
   35.5311   -4.2968   23.3310 O   0  0  0  0  0  0  0  0  0  0  0  0
   36.0991   -1.6339   22.9863 H   0  0  0  0  0  0  0  0  0  0  0  0
   35.1438   -3.8404   24.0942 H   0  0  0  0  0  0  0  0  0  0  0  0
 34 35  2  0  0  0
 34 36  1  0  0  0
 34 37  1  0  0  0
 34 33  1  0  0  0
 29 30  2  0  0  0
 29 31  1  0  0  0
 29 33  1  0  0  0
 29 28  1  0  0  0
 28 27  1  0  0  0
 27  1  1  0  0  0
  1  2  1  0  0  0
  1  3  1  0  0  0
  2  6  1  0  0  0
  3 20  1  0  0  0
  3  4  1  0  0  0
 20 21  1  0  0  0
 21 22  2  0  0  0
 21 23  1  0  0  0
 21 24  1  0  0  0
  4  5  1  0  0  0
  4  6  1  0  0  0
  6  8  1  0  0  0
  8  9  1  0  0  0
  8 17  1  0  0  0
  9 10  2  0  0  0
 10 11  1  0  0  0
 11 12  1  0  0  0
 11 17  2  0  0  0
 12 13  1  0  0  0
 12 14  2  0  0  0
 14 15  1  0  0  0
 15 16  2  0  0  0
 16 17  1  0  0  0
 36 38  1  0  0  0
 37 39  1  0  0  0
 31 32  1  0  0  0
 23 25  1  0  0  0
 24 26  1  0  0  0
  5  7  1  0  0  0
 13 18  1  0  0  0
 13 19  1  0  0  0
M  END
> <minimizedAffinity>
-7.29830

$$$$
1AFK_PAP_A_125


 39 41  0  0  0  0  0  0  0  0999 V2000
   37.7706   -6.7729   20.0639 C   0  0  0  0  0  0  0  0  0  0  0  0
   37.1152   -6.2815   18.8899 O   0  0  0  0  0  0  0  0  0  0  0  0
   39.1867   -7.2351   19.6242 C   0  0  0  0  0  0  0  0  0  0  0  0
   39.3566   -6.4557   18.3258 C   0  0  0  0  0  0  0  0  0  0  0  0
   40.3639   -7.0635   17.4869 O   0  0  0  0  0  0  0  0  0  0  0  0
   37.9269   -6.6885   17.7989 C   0  0  0  0  0  0  0  0  0  0  0  0
   40.1587   -8.0036   17.3648 H   0  0  0  0  0  0  0  0  0  0  0  0
   37.4830   -5.8341   16.6745 N   0  0  0  0  0  0  0  0  0  0  0  0
   36.6307   -6.2814   15.6961 C   0  0  0  0  0  0  0  0  0  0  0  0
   36.3588   -5.3966   14.7831 N   0  0  0  0  0  0  0  0  0  0  0  0
   37.0939   -4.2311   15.1715 C   0  0  0  0  0  0  0  0  0  0  0  0
   37.2032   -2.8998   14.5821 C   0  0  0  0  0  0  0  0  0  0  0  0
   36.6320   -2.5804   13.4045 N   0  0  0  0  0  0  0  0  0  0  0  0
   37.9762   -1.9920   15.2344 N   0  0  0  0  0  0  0  0  0  0  0  0
   38.5982   -2.3869   16.3550 C   0  0  0  0  0  0  0  0  0  0  0  0
   38.5964   -3.5776   17.0021 N   0  0  0  0  0  0  0  0  0  0  0  0
   37.7956   -4.4889   16.3441 C   0  0  0  0  0  0  0  0  0  0  0  0
   36.0725   -3.2398   12.9340 H   0  0  0  0  0  0  0  0  0  0  0  0
   36.7740   -1.6877   13.0146 H   0  0  0  0  0  0  0  0  0  0  0  0
   39.1728   -8.6715   19.3825 O   0  0  0  0  0  0  0  0  0  0  0  0
   40.4195   -9.6714   19.9847 P   0  0  0  0  0  0  0  0  0  0  0  0
   39.9874  -10.9923   19.4642 O   0  0  0  0  0  0  0  0  0  0  0  0
   41.6299   -9.1032   19.3384 O   0  0  0  0  0  0  0  0  0  0  0  0
   40.4166   -9.4954   21.4689 O   0  0  0  0  0  0  0  0  0  0  0  0
   41.5809   -9.2439   18.3799 H   0  0  0  0  0  0  0  0  0  0  0  0
   39.6078   -9.8826   21.8388 H   0  0  0  0  0  0  0  0  0  0  0  0
   37.7974   -5.6225   21.0271 C   0  0  0  0  0  0  0  0  0  0  0  0
   38.5204   -6.0840   22.1512 O   0  0  0  0  0  0  0  0  0  0  0  0
   39.1777   -5.0364   23.2098 P   0  0  0  0  0  0  0  0  0  0  0  0
   39.3561   -5.7773   24.4937 O   0  0  0  0  0  0  0  0  0  0  0  0
   40.3711   -4.4067   22.5825 O   0  0  0  0  0  0  0  0  0  0  0  0
   40.7709   -3.7798   23.2054 H   0  0  0  0  0  0  0  0  0  0  0  0
   37.9140   -3.9223   23.5541 O   0  0  0  0  0  0  0  0  0  0  0  0
   37.5029   -2.3813   23.1464 P   0  0  0  0  0  0  0  0  0  0  0  0
   37.6047   -1.6080   24.4004 O   0  0  0  0  0  0  0  0  0  0  0  0
   38.5168   -2.0155   22.1000 O   0  0  0  0  0  0  0  0  0  0  0  0
   36.1229   -2.4814   22.6167 O   0  0  0  0  0  0  0  0  0  0  0  0
   38.3531   -1.1097   21.7938 H   0  0  0  0  0  0  0  0  0  0  0  0
   35.8127   -1.6007   22.3540 H   0  0  0  0  0  0  0  0  0  0  0  0
 34 35  2  0  0  0
 34 36  1  0  0  0
 34 37  1  0  0  0
 34 33  1  0  0  0
 29 30  2  0  0  0
 29 31  1  0  0  0
 29 33  1  0  0  0
 29 28  1  0  0  0
 28 27  1  0  0  0
 27  1  1  0  0  0
  1  2  1  0  0  0
  1  3  1  0  0  0
  2  6  1  0  0  0
  3 20  1  0  0  0
  3  4  1  0  0  0
 20 21  1  0  0  0
 21 22  2  0  0  0
 21 23  1  0  0  0
 21 24  1  0  0  0
  4  5  1  0  0  0
  4  6  1  0  0  0
  6  8  1  0  0  0
  8  9  1  0  0  0
  8 17  1  0  0  0
  9 10  2  0  0  0
 10 11  1  0  0  0
 11 12  1  0  0  0
 11 17  2  0  0  0
 12 13  1  0  0  0
 12 14  2  0  0  0
 14 15  1  0  0  0
 15 16  2  0  0  0
 16 17  1  0  0  0
 36 38  1  0  0  0
 37 39  1  0  0  0
 31 32  1  0  0  0
 23 25  1  0  0  0
 24 26  1  0  0  0
  5  7  1  0  0  0
 13 18  1  0  0  0
 13 19  1  0  0  0
M  END
> <minimizedAffinity>
-7.16559

$$$$
1AFK_PAP_A_125


 39 41  0  0  0  0  0  0  0  0999 V2000
   39.2294   -4.5376   20.6633 C   0  0  0  0  0  0  0  0  0  0  0  0
   38.5156   -4.3498   19.4367 O   0  0  0  0  0  0  0  0  0  0  0  0
   40.7355   -4.6247   20.2945 C   0  0  0  0  0  0  0  0  0  0  0  0
   40.7407   -3.9430   18.9316 C   0  0  0  0  0  0  0  0  0  0  0  0
   41.9115   -4.3170   18.1718 O   0  0  0  0  0  0  0  0  0  0  0  0
   39.4541   -4.6076   18.4036 C   0  0  0  0  0  0  0  0  0  0  0  0
   41.9779   -5.2840   18.1352 H   0  0  0  0  0  0  0  0  0  0  0  0
   38.8416   -4.0094   17.1960 N   0  0  0  0  0  0  0  0  0  0  0  0
   39.1372   -2.7394   16.7674 C   0  0  0  0  0  0  0  0  0  0  0  0
   38.4968   -2.3780   15.6953 N   0  0  0  0  0  0  0  0  0  0  0  0
   37.6846   -3.5067   15.3552 C   0  0  0  0  0  0  0  0  0  0  0  0
   36.7516   -3.7480   14.2583 C   0  0  0  0  0  0  0  0  0  0  0  0
   36.4222   -2.7945   13.3654 N   0  0  0  0  0  0  0  0  0  0  0  0
   36.1557   -4.9682   14.2052 N   0  0  0  0  0  0  0  0  0  0  0  0
   36.4476   -5.8521   15.1707 C   0  0  0  0  0  0  0  0  0  0  0  0
   37.2742   -5.7613   16.2407 N   0  0  0  0  0  0  0  0  0  0  0  0
   37.8894   -4.5265   16.2782 C   0  0  0  0  0  0  0  0  0  0  0  0
   36.8554   -1.9113   13.4059 H   0  0  0  0  0  0  0  0  0  0  0  0
   35.7483   -2.9808   12.6723 H   0  0  0  0  0  0  0  0  0  0  0  0
   41.1271   -6.0238   20.1891 O   0  0  0  0  0  0  0  0  0  0  0  0
   41.0090   -7.0685   21.5349 P   0  0  0  0  0  0  0  0  0  0  0  0
   39.7321   -7.7618   21.2329 O   0  0  0  0  0  0  0  0  0  0  0  0
   42.2287   -7.9053   21.4023 O   0  0  0  0  0  0  0  0  0  0  0  0
   41.0335   -6.1938   22.7466 O   0  0  0  0  0  0  0  0  0  0  0  0
   42.1611   -8.4509   20.6032 H   0  0  0  0  0  0  0  0  0  0  0  0
   40.2173   -5.6710   22.7846 H   0  0  0  0  0  0  0  0  0  0  0  0
   38.8975   -3.3468   21.5141 C   0  0  0  0  0  0  0  0  0  0  0  0
   39.7153   -3.4595   22.6622 O   0  0  0  0  0  0  0  0  0  0  0  0
   39.3102   -2.7168   24.0530 P   0  0  0  0  0  0  0  0  0  0  0  0
   38.0205   -3.3199   24.5027 O   0  0  0  0  0  0  0  0  0  0  0  0
   40.4751   -2.7625   24.9777 O   0  0  0  0  0  0  0  0  0  0  0  0
   40.2443   -2.3222   25.8106 H   0  0  0  0  0  0  0  0  0  0  0  0
   38.8717   -1.1234   23.5785 O   0  0  0  0  0  0  0  0  0  0  0  0
   37.5040   -0.2119   23.4862 P   0  0  0  0  0  0  0  0  0  0  0  0
   37.3286    0.3622   24.8355 O   0  0  0  0  0  0  0  0  0  0  0  0
   37.8254    0.7911   22.4149 O   0  0  0  0  0  0  0  0  0  0  0  0
   36.4363   -1.1631   23.0983 O   0  0  0  0  0  0  0  0  0  0  0  0
   37.0668    1.3819   22.2871 H   0  0  0  0  0  0  0  0  0  0  0  0
   35.5928   -0.6898   23.0245 H   0  0  0  0  0  0  0  0  0  0  0  0
 34 35  2  0  0  0
 34 36  1  0  0  0
 34 37  1  0  0  0
 34 33  1  0  0  0
 29 30  2  0  0  0
 29 31  1  0  0  0
 29 33  1  0  0  0
 29 28  1  0  0  0
 28 27  1  0  0  0
 27  1  1  0  0  0
  1  2  1  0  0  0
  1  3  1  0  0  0
  2  6  1  0  0  0
  3 20  1  0  0  0
  3  4  1  0  0  0
 20 21  1  0  0  0
 21 22  2  0  0  0
 21 23  1  0  0  0
 21 24  1  0  0  0
  4  5  1  0  0  0
  4  6  1  0  0  0
  6  8  1  0  0  0
  8  9  1  0  0  0
  8 17  1  0  0  0
  9 10  2  0  0  0
 10 11  1  0  0  0
 11 12  1  0  0  0
 11 17  2  0  0  0
 12 13  1  0  0  0
 12 14  2  0  0  0
 14 15  1  0  0  0
 15 16  2  0  0  0
 16 17  1  0  0  0
 36 38  1  0  0  0
 37 39  1  0  0  0
 31 32  1  0  0  0
 23 25  1  0  0  0
 24 26  1  0  0  0
  5  7  1  0  0  0
 13 18  1  0  0  0
 13 19  1  0  0  0
M  END
> <minimizedAffinity>
-6.83750

$$$$
1AFK_PAP_A_125


 39 41  0  0  0  0  0  0  0  0999 V2000
   39.0877   -4.2911   20.3769 C   0  0  0  0  0  0  0  0  0  0  0  0
   38.9748   -4.5743   18.9782 O   0  0  0  0  0  0  0  0  0  0  0  0
   38.2730   -5.3842   21.1209 C   0  0  0  0  0  0  0  0  0  0  0  0
   38.2226   -6.4796   20.0627 C   0  0  0  0  0  0  0  0  0  0  0  0
   37.1325   -7.3933   20.3170 O   0  0  0  0  0  0  0  0  0  0  0  0
   37.9481   -5.5478   18.8658 C   0  0  0  0  0  0  0  0  0  0  0  0
   36.3072   -6.8930   20.4140 H   0  0  0  0  0  0  0  0  0  0  0  0
   38.1369   -6.1237   17.5152 N   0  0  0  0  0  0  0  0  0  0  0  0
   39.0851   -7.0780   17.2430 C   0  0  0  0  0  0  0  0  0  0  0  0
   39.1137   -7.4592   16.0004 N   0  0  0  0  0  0  0  0  0  0  0  0
   38.0879   -6.6944   15.3584 C   0  0  0  0  0  0  0  0  0  0  0  0
   37.6051   -6.6636   13.9808 C   0  0  0  0  0  0  0  0  0  0  0  0
   38.1908   -7.3678   12.9928 N   0  0  0  0  0  0  0  0  0  0  0  0
   36.5692   -5.8290   13.7029 N   0  0  0  0  0  0  0  0  0  0  0  0
   36.0805   -5.0803   14.7025 C   0  0  0  0  0  0  0  0  0  0  0  0
   36.4332   -4.9988   16.0084 N   0  0  0  0  0  0  0  0  0  0  0  0
   37.4734   -5.8617   16.2874 C   0  0  0  0  0  0  0  0  0  0  0  0
   38.9411   -7.9717   13.1967 H   0  0  0  0  0  0  0  0  0  0  0  0
   37.8685   -7.2784   12.0668 H   0  0  0  0  0  0  0  0  0  0  0  0
   36.9417   -4.8747   21.4205 O   0  0  0  0  0  0  0  0  0  0  0  0
   36.6609   -3.9288   22.8145 P   0  0  0  0  0  0  0  0  0  0  0  0
   35.4330   -4.5745   23.3414 O   0  0  0  0  0  0  0  0  0  0  0  0
   37.8899   -4.1609   23.6153 O   0  0  0  0  0  0  0  0  0  0  0  0
   36.5331   -2.5164   22.3426 O   0  0  0  0  0  0  0  0  0  0  0  0
   37.9230   -5.0891   23.8949 H   0  0  0  0  0  0  0  0  0  0  0  0
   35.7171   -2.4203   21.8271 H   0  0  0  0  0  0  0  0  0  0  0  0
   40.5558   -4.3368   20.6845 C   0  0  0  0  0  0  0  0  0  0  0  0
   40.6597   -4.1192   22.0778 O   0  0  0  0  0  0  0  0  0  0  0  0
   40.8829   -2.6215   22.6754 P   0  0  0  0  0  0  0  0  0  0  0  0
   42.0952   -2.0666   22.0034 O   0  0  0  0  0  0  0  0  0  0  0  0
   39.6047   -1.8673   22.5682 O   0  0  0  0  0  0  0  0  0  0  0  0
   39.7266   -0.9724   22.9219 H   0  0  0  0  0  0  0  0  0  0  0  0
   41.3962   -2.8767   24.2966 O   0  0  0  0  0  0  0  0  0  0  0  0
   41.0846   -3.9305   25.5222 P   0  0  0  0  0  0  0  0  0  0  0  0
   41.8993   -3.4555   26.6587 O   0  0  0  0  0  0  0  0  0  0  0  0
   39.6005   -3.8066   25.7194 O   0  0  0  0  0  0  0  0  0  0  0  0
   41.4990   -5.2546   25.0024 O   0  0  0  0  0  0  0  0  0  0  0  0
   39.3185   -4.3997   26.4332 H   0  0  0  0  0  0  0  0  0  0  0  0
   41.3420   -5.9313   25.6793 H   0  0  0  0  0  0  0  0  0  0  0  0
 34 35  2  0  0  0
 34 36  1  0  0  0
 34 37  1  0  0  0
 34 33  1  0  0  0
 29 30  2  0  0  0
 29 31  1  0  0  0
 29 33  1  0  0  0
 29 28  1  0  0  0
 28 27  1  0  0  0
 27  1  1  0  0  0
  1  2  1  0  0  0
  1  3  1  0  0  0
  2  6  1  0  0  0
  3 20  1  0  0  0
  3  4  1  0  0  0
 20 21  1  0  0  0
 21 22  2  0  0  0
 21 23  1  0  0  0
 21 24  1  0  0  0
  4  5  1  0  0  0
  4  6  1  0  0  0
  6  8  1  0  0  0
  8  9  1  0  0  0
  8 17  1  0  0  0
  9 10  2  0  0  0
 10 11  1  0  0  0
 11 12  1  0  0  0
 11 17  2  0  0  0
 12 13  1  0  0  0
 12 14  2  0  0  0
 14 15  1  0  0  0
 15 16  2  0  0  0
 16 17  1  0  0  0
 36 38  1  0  0  0
 37 39  1  0  0  0
 31 32  1  0  0  0
 23 25  1  0  0  0
 24 26  1  0  0  0
  5  7  1  0  0  0
 13 18  1  0  0  0
 13 19  1  0  0  0
M  END
> <minimizedAffinity>
-6.76890

$$$$
1AFK_PAP_A_125


 39 41  0  0  0  0  0  0  0  0999 V2000
   38.5667   -5.5657   20.8428 C   0  0  0  0  0  0  0  0  0  0  0  0
   37.7558   -5.3151   19.6900 O   0  0  0  0  0  0  0  0  0  0  0  0
   39.8024   -6.3691   20.3532 C   0  0  0  0  0  0  0  0  0  0  0  0
   39.8043   -6.0234   18.8691 C   0  0  0  0  0  0  0  0  0  0  0  0
   40.5461   -7.0050   18.1114 O   0  0  0  0  0  0  0  0  0  0  0  0
   38.2813   -6.1434   18.6641 C   0  0  0  0  0  0  0  0  0  0  0  0
   40.2100   -7.8919   18.3147 H   0  0  0  0  0  0  0  0  0  0  0  0
   37.7294   -5.5724   17.4148 N   0  0  0  0  0  0  0  0  0  0  0  0
   36.8255   -6.2438   16.6299 C   0  0  0  0  0  0  0  0  0  0  0  0
   36.4591   -5.5925   15.5659 N   0  0  0  0  0  0  0  0  0  0  0  0
   37.1795   -4.3568   15.6260 C   0  0  0  0  0  0  0  0  0  0  0  0
   37.2008   -3.1911   14.7472 C   0  0  0  0  0  0  0  0  0  0  0  0
   36.5365   -3.1556   13.5757 N   0  0  0  0  0  0  0  0  0  0  0  0
   37.9865   -2.1462   15.1185 N   0  0  0  0  0  0  0  0  0  0  0  0
   38.7000   -2.2672   16.2476 C   0  0  0  0  0  0  0  0  0  0  0  0
   38.7852   -3.2811   17.1427 N   0  0  0  0  0  0  0  0  0  0  0  0
   37.9713   -4.3312   16.7689 C   0  0  0  0  0  0  0  0  0  0  0  0
   35.9679   -3.9138   13.3091 H   0  0  0  0  0  0  0  0  0  0  0  0
   36.6196   -2.3714   12.9863 H   0  0  0  0  0  0  0  0  0  0  0  0
   39.5695   -7.7912   20.5662 O   0  0  0  0  0  0  0  0  0  0  0  0
   40.8234   -8.8088   21.1221 P   0  0  0  0  0  0  0  0  0  0  0  0
   41.2504   -8.0774   22.3408 O   0  0  0  0  0  0  0  0  0  0  0  0
   40.1138  -10.0896   21.3702 O   0  0  0  0  0  0  0  0  0  0  0  0
   41.8136   -8.9000   20.0063 O   0  0  0  0  0  0  0  0  0  0  0  0
   39.4861   -9.9752   22.1008 H   0  0  0  0  0  0  0  0  0  0  0  0
   42.2465   -8.0401   19.8870 H   0  0  0  0  0  0  0  0  0  0  0  0
   38.9204   -4.2152   21.3933 C   0  0  0  0  0  0  0  0  0  0  0  0
   37.9318   -3.9285   22.3627 O   0  0  0  0  0  0  0  0  0  0  0  0
   38.1474   -2.7349   23.4486 P   0  0  0  0  0  0  0  0  0  0  0  0
   38.4189   -1.4898   22.6707 O   0  0  0  0  0  0  0  0  0  0  0  0
   37.0042   -2.7412   24.4010 O   0  0  0  0  0  0  0  0  0  0  0  0
   37.1227   -2.0330   25.0531 H   0  0  0  0  0  0  0  0  0  0  0  0
   39.6587   -3.0922   24.1868 O   0  0  0  0  0  0  0  0  0  0  0  0
   40.3351   -4.3231   25.0455 P   0  0  0  0  0  0  0  0  0  0  0  0
   39.5295   -5.5156   24.7143 O   0  0  0  0  0  0  0  0  0  0  0  0
   41.7500   -4.3625   24.5423 O   0  0  0  0  0  0  0  0  0  0  0  0
   40.2277   -3.9044   26.4626 O   0  0  0  0  0  0  0  0  0  0  0  0
   42.2355   -5.0682   24.9975 H   0  0  0  0  0  0  0  0  0  0  0  0
   40.6108   -4.5898   27.0322 H   0  0  0  0  0  0  0  0  0  0  0  0
 34 35  2  0  0  0
 34 36  1  0  0  0
 34 37  1  0  0  0
 34 33  1  0  0  0
 29 30  2  0  0  0
 29 31  1  0  0  0
 29 33  1  0  0  0
 29 28  1  0  0  0
 28 27  1  0  0  0
 27  1  1  0  0  0
  1  2  1  0  0  0
  1  3  1  0  0  0
  2  6  1  0  0  0
  3 20  1  0  0  0
  3  4  1  0  0  0
 20 21  1  0  0  0
 21 22  2  0  0  0
 21 23  1  0  0  0
 21 24  1  0  0  0
  4  5  1  0  0  0
  4  6  1  0  0  0
  6  8  1  0  0  0
  8  9  1  0  0  0
  8 17  1  0  0  0
  9 10  2  0  0  0
 10 11  1  0  0  0
 11 12  1  0  0  0
 11 17  2  0  0  0
 12 13  1  0  0  0
 12 14  2  0  0  0
 14 15  1  0  0  0
 15 16  2  0  0  0
 16 17  1  0  0  0
 36 38  1  0  0  0
 37 39  1  0  0  0
 31 32  1  0  0  0
 23 25  1  0  0  0
 24 26  1  0  0  0
  5  7  1  0  0  0
 13 18  1  0  0  0
 13 19  1  0  0  0
M  END
> <minimizedAffinity>
-6.65701

$$$$
1AFK_PAP_A_125


 39 41  0  0  0  0  0  0  0  0999 V2000
   39.7220   -3.9843   21.3763 C   0  0  0  0  0  0  0  0  0  0  0  0
   39.5791   -4.7914   20.2025 O   0  0  0  0  0  0  0  0  0  0  0  0
   38.5872   -4.4064   22.3490 C   0  0  0  0  0  0  0  0  0  0  0  0
   38.2447   -5.7910   21.8126 C   0  0  0  0  0  0  0  0  0  0  0  0
   36.9201   -6.1922   22.2275 O   0  0  0  0  0  0  0  0  0  0  0  0
   38.3099   -5.4160   20.3189 C   0  0  0  0  0  0  0  0  0  0  0  0
   36.2829   -5.5015   21.9871 H   0  0  0  0  0  0  0  0  0  0  0  0
   38.3636   -6.5355   19.3519 N   0  0  0  0  0  0  0  0  0  0  0  0
   38.7763   -7.7969   19.7015 C   0  0  0  0  0  0  0  0  0  0  0  0
   38.7687   -8.6495   18.7201 N   0  0  0  0  0  0  0  0  0  0  0  0
   38.3067   -7.9030   17.5893 C   0  0  0  0  0  0  0  0  0  0  0  0
   38.0613   -8.2795   16.2001 C   0  0  0  0  0  0  0  0  0  0  0  0
   38.3591   -9.5018   15.7182 N   0  0  0  0  0  0  0  0  0  0  0  0
   37.5804   -7.3169   15.3701 N   0  0  0  0  0  0  0  0  0  0  0  0
   37.3870   -6.0903   15.8767 C   0  0  0  0  0  0  0  0  0  0  0  0
   37.5798   -5.6024   17.1262 N   0  0  0  0  0  0  0  0  0  0  0  0
   38.0511   -6.5895   17.9677 C   0  0  0  0  0  0  0  0  0  0  0  0
   38.7073  -10.1975   16.3215 H   0  0  0  0  0  0  0  0  0  0  0  0
   38.2284   -9.6994   14.7626 H   0  0  0  0  0  0  0  0  0  0  0  0
   37.4638   -3.4901   22.2077 O   0  0  0  0  0  0  0  0  0  0  0  0
   37.3201   -2.1206   23.2180 P   0  0  0  0  0  0  0  0  0  0  0  0
   38.5453   -1.3724   22.8420 O   0  0  0  0  0  0  0  0  0  0  0  0
   36.0442   -1.5140   22.7602 O   0  0  0  0  0  0  0  0  0  0  0  0
   37.2474   -2.6396   24.6178 O   0  0  0  0  0  0  0  0  0  0  0  0
   36.1461   -1.1949   21.8499 H   0  0  0  0  0  0  0  0  0  0  0  0
   38.1032   -3.0233   24.8652 H   0  0  0  0  0  0  0  0  0  0  0  0
   41.0947   -4.2773   21.9073 C   0  0  0  0  0  0  0  0  0  0  0  0
   41.6515   -3.0201   22.2371 O   0  0  0  0  0  0  0  0  0  0  0  0
   41.9553   -2.6210   23.7858 P   0  0  0  0  0  0  0  0  0  0  0  0
   43.4109   -2.2993   23.8694 O   0  0  0  0  0  0  0  0  0  0  0  0
   40.9747   -1.5876   24.2156 O   0  0  0  0  0  0  0  0  0  0  0  0
   41.1469   -1.3423   25.1381 H   0  0  0  0  0  0  0  0  0  0  0  0
   41.8148   -4.1022   24.6478 O   0  0  0  0  0  0  0  0  0  0  0  0
   40.7449   -4.8191   25.6731 P   0  0  0  0  0  0  0  0  0  0  0  0
   41.4743   -4.9754   26.9476 O   0  0  0  0  0  0  0  0  0  0  0  0
   39.6016   -3.8457   25.7200 O   0  0  0  0  0  0  0  0  0  0  0  0
   40.3955   -6.1040   25.0234 O   0  0  0  0  0  0  0  0  0  0  0  0
   38.9105   -4.1869   26.3089 H   0  0  0  0  0  0  0  0  0  0  0  0
   39.7616   -6.5849   25.5782 H   0  0  0  0  0  0  0  0  0  0  0  0
 34 35  2  0  0  0
 34 36  1  0  0  0
 34 37  1  0  0  0
 34 33  1  0  0  0
 29 30  2  0  0  0
 29 31  1  0  0  0
 29 33  1  0  0  0
 29 28  1  0  0  0
 28 27  1  0  0  0
 27  1  1  0  0  0
  1  2  1  0  0  0
  1  3  1  0  0  0
  2  6  1  0  0  0
  3 20  1  0  0  0
  3  4  1  0  0  0
 20 21  1  0  0  0
 21 22  2  0  0  0
 21 23  1  0  0  0
 21 24  1  0  0  0
  4  5  1  0  0  0
  4  6  1  0  0  0
  6  8  1  0  0  0
  8  9  1  0  0  0
  8 17  1  0  0  0
  9 10  2  0  0  0
 10 11  1  0  0  0
 11 12  1  0  0  0
 11 17  2  0  0  0
 12 13  1  0  0  0
 12 14  2  0  0  0
 14 15  1  0  0  0
 15 16  2  0  0  0
 16 17  1  0  0  0
 36 38  1  0  0  0
 37 39  1  0  0  0
 31 32  1  0  0  0
 23 25  1  0  0  0
 24 26  1  0  0  0
  5  7  1  0  0  0
 13 18  1  0  0  0
 13 19  1  0  0  0
M  END
> <minimizedAffinity>
-6.63770

$$$$
1AFK_PAP_A_125


 39 41  0  0  0  0  0  0  0  0999 V2000
   37.9162   -5.2607   22.7148 C   0  0  0  0  0  0  0  0  0  0  0  0
   37.6313   -6.0721   21.5703 O   0  0  0  0  0  0  0  0  0  0  0  0
   39.4573   -5.0725   22.7561 C   0  0  0  0  0  0  0  0  0  0  0  0
   39.8255   -5.3731   21.3083 C   0  0  0  0  0  0  0  0  0  0  0  0
   41.2199   -5.7346   21.1947 O   0  0  0  0  0  0  0  0  0  0  0  0
   38.8841   -6.5821   21.1404 C   0  0  0  0  0  0  0  0  0  0  0  0
   41.4193   -6.4530   21.8152 H   0  0  0  0  0  0  0  0  0  0  0  0
   38.6345   -7.0460   19.7570 N   0  0  0  0  0  0  0  0  0  0  0  0
   38.5832   -8.3754   19.4197 C   0  0  0  0  0  0  0  0  0  0  0  0
   38.3648   -8.5951   18.1570 N   0  0  0  0  0  0  0  0  0  0  0  0
   38.2555   -7.2932   17.5718 C   0  0  0  0  0  0  0  0  0  0  0  0
   37.9987   -6.8520   16.2039 C   0  0  0  0  0  0  0  0  0  0  0  0
   37.9108   -7.7118   15.1705 N   0  0  0  0  0  0  0  0  0  0  0  0
   37.9214   -5.5127   15.9862 N   0  0  0  0  0  0  0  0  0  0  0  0
   38.1073   -4.6947   17.0326 C   0  0  0  0  0  0  0  0  0  0  0  0
   38.3611   -4.9610   18.3369 N   0  0  0  0  0  0  0  0  0  0  0  0
   38.4204   -6.3226   18.5539 C   0  0  0  0  0  0  0  0  0  0  0  0
   37.9671   -8.6815   15.3308 H   0  0  0  0  0  0  0  0  0  0  0  0
   37.7903   -7.3704   14.2550 H   0  0  0  0  0  0  0  0  0  0  0  0
   40.0393   -6.0504   23.6653 O   0  0  0  0  0  0  0  0  0  0  0  0
   40.6115   -5.5811   25.2045 P   0  0  0  0  0  0  0  0  0  0  0  0
   42.0189   -5.2387   24.8814 O   0  0  0  0  0  0  0  0  0  0  0  0
   39.7399   -4.4247   25.5343 O   0  0  0  0  0  0  0  0  0  0  0  0
   40.3903   -6.7514   26.1075 O   0  0  0  0  0  0  0  0  0  0  0  0
   39.9234   -3.6962   24.9207 H   0  0  0  0  0  0  0  0  0  0  0  0
   40.9821   -7.4753   25.8494 H   0  0  0  0  0  0  0  0  0  0  0  0
   37.1699   -3.9767   22.4998 C   0  0  0  0  0  0  0  0  0  0  0  0
   37.4649   -3.1720   23.6244 O   0  0  0  0  0  0  0  0  0  0  0  0
   38.2444   -1.7529   23.4553 P   0  0  0  0  0  0  0  0  0  0  0  0
   39.4704   -1.8318   24.3036 O   0  0  0  0  0  0  0  0  0  0  0  0
   38.4032   -1.4633   22.0044 O   0  0  0  0  0  0  0  0  0  0  0  0
   38.8670   -0.6189   21.8920 H   0  0  0  0  0  0  0  0  0  0  0  0
   37.2516   -0.6155   24.2783 O   0  0  0  0  0  0  0  0  0  0  0  0
   37.2422    1.0035   24.5762 P   0  0  0  0  0  0  0  0  0  0  0  0
   38.5217    1.5049   24.0354 O   0  0  0  0  0  0  0  0  0  0  0  0
   36.0209    1.4850   23.8457 O   0  0  0  0  0  0  0  0  0  0  0  0
   37.1294    1.1204   26.0488 O   0  0  0  0  0  0  0  0  0  0  0  0
   35.9299    2.4434   23.9647 H   0  0  0  0  0  0  0  0  0  0  0  0
   37.1179    2.0575   26.2989 H   0  0  0  0  0  0  0  0  0  0  0  0
 34 35  2  0  0  0
 34 36  1  0  0  0
 34 37  1  0  0  0
 34 33  1  0  0  0
 29 30  2  0  0  0
 29 31  1  0  0  0
 29 33  1  0  0  0
 29 28  1  0  0  0
 28 27  1  0  0  0
 27  1  1  0  0  0
  1  2  1  0  0  0
  1  3  1  0  0  0
  2  6  1  0  0  0
  3 20  1  0  0  0
  3  4  1  0  0  0
 20 21  1  0  0  0
 21 22  2  0  0  0
 21 23  1  0  0  0
 21 24  1  0  0  0
  4  5  1  0  0  0
  4  6  1  0  0  0
  6  8  1  0  0  0
  8  9  1  0  0  0
  8 17  1  0  0  0
  9 10  2  0  0  0
 10 11  1  0  0  0
 11 12  1  0  0  0
 11 17  2  0  0  0
 12 13  1  0  0  0
 12 14  2  0  0  0
 14 15  1  0  0  0
 15 16  2  0  0  0
 16 17  1  0  0  0
 36 38  1  0  0  0
 37 39  1  0  0  0
 31 32  1  0  0  0
 23 25  1  0  0  0
 24 26  1  0  0  0
  5  7  1  0  0  0
 13 18  1  0  0  0
 13 19  1  0  0  0
M  END
> <minimizedAffinity>
-6.58166

$$$$
1AFK_PAP_A_125


 39 41  0  0  0  0  0  0  0  0999 V2000
   38.5414   -5.6695   19.1895 C   0  0  0  0  0  0  0  0  0  0  0  0
   38.8558   -7.0319   19.4965 O   0  0  0  0  0  0  0  0  0  0  0  0
   37.8259   -5.6762   17.8111 C   0  0  0  0  0  0  0  0  0  0  0  0
   37.3471   -7.1211   17.7393 C   0  0  0  0  0  0  0  0  0  0  0  0
   37.0808   -7.5094   16.3733 O   0  0  0  0  0  0  0  0  0  0  0  0
   38.6369   -7.7559   18.2955 C   0  0  0  0  0  0  0  0  0  0  0  0
   37.8582   -7.3183   15.8254 H   0  0  0  0  0  0  0  0  0  0  0  0
   38.5512   -9.1682   18.7307 N   0  0  0  0  0  0  0  0  0  0  0  0
   38.9370   -9.5825   19.9810 C   0  0  0  0  0  0  0  0  0  0  0  0
   38.8010  -10.8596   20.1830 N   0  0  0  0  0  0  0  0  0  0  0  0
   38.2715  -11.3708   18.9551 C   0  0  0  0  0  0  0  0  0  0  0  0
   37.8831  -12.7156   18.5397 C   0  0  0  0  0  0  0  0  0  0  0  0
   38.0800  -13.7983   19.3168 N   0  0  0  0  0  0  0  0  0  0  0  0
   37.3720  -12.8571   17.2884 N   0  0  0  0  0  0  0  0  0  0  0  0
   37.2814  -11.7620   16.5196 C   0  0  0  0  0  0  0  0  0  0  0  0
   37.6097  -10.4707   16.7670 N   0  0  0  0  0  0  0  0  0  0  0  0
   38.1111  -10.3314   18.0453 C   0  0  0  0  0  0  0  0  0  0  0  0
   38.4504  -13.6931   20.2229 H   0  0  0  0  0  0  0  0  0  0  0  0
   37.8536  -14.6947   18.9786 H   0  0  0  0  0  0  0  0  0  0  0  0
   38.7944   -5.3858   16.7625 O   0  0  0  0  0  0  0  0  0  0  0  0
   38.4603   -4.2167   15.5632 P   0  0  0  0  0  0  0  0  0  0  0  0
   37.2543   -4.8079   14.9320 O   0  0  0  0  0  0  0  0  0  0  0  0
   38.2166   -2.9912   16.3659 O   0  0  0  0  0  0  0  0  0  0  0  0
   39.6890   -4.1224   14.7175 O   0  0  0  0  0  0  0  0  0  0  0  0
   37.4108   -3.1053   16.8938 H   0  0  0  0  0  0  0  0  0  0  0  0
   39.8006   -4.9454   14.2164 H   0  0  0  0  0  0  0  0  0  0  0  0
   37.6630   -5.1921   20.3087 C   0  0  0  0  0  0  0  0  0  0  0  0
   38.5314   -4.9528   21.3986 O   0  0  0  0  0  0  0  0  0  0  0  0
   38.0332   -5.1858   22.9308 P   0  0  0  0  0  0  0  0  0  0  0  0
   36.9057   -6.1627   22.8726 O   0  0  0  0  0  0  0  0  0  0  0  0
   39.2143   -5.5151   23.7739 O   0  0  0  0  0  0  0  0  0  0  0  0
   38.9284   -5.6561   24.6900 H   0  0  0  0  0  0  0  0  0  0  0  0
   37.2699   -3.7074   23.3650 O   0  0  0  0  0  0  0  0  0  0  0  0
   37.4544   -2.1021   23.0507 P   0  0  0  0  0  0  0  0  0  0  0  0
   37.8564   -1.4987   24.3372 O   0  0  0  0  0  0  0  0  0  0  0  0
   38.5146   -2.0750   21.9868 O   0  0  0  0  0  0  0  0  0  0  0  0
   36.1276   -1.6522   22.5687 O   0  0  0  0  0  0  0  0  0  0  0  0
   38.6943   -1.1563   21.7327 H   0  0  0  0  0  0  0  0  0  0  0  0
   36.1627   -0.7051   22.3622 H   0  0  0  0  0  0  0  0  0  0  0  0
 34 35  2  0  0  0
 34 36  1  0  0  0
 34 37  1  0  0  0
 34 33  1  0  0  0
 29 30  2  0  0  0
 29 31  1  0  0  0
 29 33  1  0  0  0
 29 28  1  0  0  0
 28 27  1  0  0  0
 27  1  1  0  0  0
  1  2  1  0  0  0
  1  3  1  0  0  0
  2  6  1  0  0  0
  3 20  1  0  0  0
  3  4  1  0  0  0
 20 21  1  0  0  0
 21 22  2  0  0  0
 21 23  1  0  0  0
 21 24  1  0  0  0
  4  5  1  0  0  0
  4  6  1  0  0  0
  6  8  1  0  0  0
  8  9  1  0  0  0
  8 17  1  0  0  0
  9 10  2  0  0  0
 10 11  1  0  0  0
 11 12  1  0  0  0
 11 17  2  0  0  0
 12 13  1  0  0  0
 12 14  2  0  0  0
 14 15  1  0  0  0
 15 16  2  0  0  0
 16 17  1  0  0  0
 36 38  1  0  0  0
 37 39  1  0  0  0
 31 32  1  0  0  0
 23 25  1  0  0  0
 24 26  1  0  0  0
  5  7  1  0  0  0
 13 18  1  0  0  0
 13 19  1  0  0  0
M  END
> <minimizedAffinity>
-6.57539

$$$$
