1ADO_13P_A_1104


 13 12  0  0  0  0  0  0  0  0999 V2000
   24.0813   26.9302   24.8848 O   0  0  0  0  0  0  0  0  0  0  0  0
   23.2178   27.7853   23.8053 P   0  0  0  0  0  0  0  0  0  0  0  0
   23.9240   28.2307   22.4139 O   0  0  0  0  0  0  0  0  0  0  0  0
   22.0962   26.8444   23.2095 O   0  0  0  0  0  0  0  0  0  0  0  0
   22.4754   28.9596   24.4999 O   0  0  0  0  0  0  0  0  0  0  0  0
   21.5698   27.3388   22.5619 H   0  0  0  0  0  0  0  0  0  0  0  0
   21.9670   29.4563   23.8398 H   0  0  0  0  0  0  0  0  0  0  0  0
   25.0765   27.5504   25.7434 C   0  0  0  0  0  0  0  0  0  0  0  0
   24.5117   28.2714   26.9517 C   0  0  0  0  0  0  0  0  0  0  0  0
   24.2705   29.4744   26.8965 O   0  0  0  0  0  0  0  0  0  0  0  0
   24.2609   27.4975   28.2316 C   0  0  0  0  0  0  0  0  0  0  0  0
   23.5118   28.2899   29.1359 O   0  0  0  0  0  0  0  0  0  0  0  0
   24.0072   29.0971   29.3455 H   0  0  0  0  0  0  0  0  0  0  0  0
  2  3  2  0  0  0
  2  4  1  0  0  0
  2  5  1  0  0  0
  2  1  1  0  0  0
  1  8  1  0  0  0
  8  9  1  0  0  0
  9 10  2  0  0  0
  9 11  1  0  0  0
 11 12  1  0  0  0
  4  6  1  0  0  0
  5  7  1  0  0  0
 12 13  1  0  0  0
M  END
> <minimizedAffinity>
-5.74778

$$$$
1ADO_13P_A_1104


 13 12  0  0  0  0  0  0  0  0999 V2000
   24.7471   26.9518   24.3288 O   0  0  0  0  0  0  0  0  0  0  0  0
   23.3128   27.5545   23.8582 P   0  0  0  0  0  0  0  0  0  0  0  0
   22.6814   28.8043   24.6782 O   0  0  0  0  0  0  0  0  0  0  0  0
   23.5075   28.2648   22.4596 O   0  0  0  0  0  0  0  0  0  0  0  0
   22.2851   26.4132   23.6260 O   0  0  0  0  0  0  0  0  0  0  0  0
   22.6601   28.6313   22.1623 H   0  0  0  0  0  0  0  0  0  0  0  0
   21.4376   26.7932   23.3463 H   0  0  0  0  0  0  0  0  0  0  0  0
   25.3107   25.7489   23.7390 C   0  0  0  0  0  0  0  0  0  0  0  0
   25.3096   24.5356   24.6483 C   0  0  0  0  0  0  0  0  0  0  0  0
   25.6199   23.4323   24.2067 O   0  0  0  0  0  0  0  0  0  0  0  0
   24.9090   24.6941   26.1024 C   0  0  0  0  0  0  0  0  0  0  0  0
   25.7070   23.8539   26.9172 O   0  0  0  0  0  0  0  0  0  0  0  0
   25.5788   22.9297   26.6520 H   0  0  0  0  0  0  0  0  0  0  0  0
  2  3  2  0  0  0
  2  4  1  0  0  0
  2  5  1  0  0  0
  2  1  1  0  0  0
  1  8  1  0  0  0
  8  9  1  0  0  0
  9 10  2  0  0  0
  9 11  1  0  0  0
 11 12  1  0  0  0
  4  6  1  0  0  0
  5  7  1  0  0  0
 12 13  1  0  0  0
M  END
> <minimizedAffinity>
-5.74404

$$$$
1ADO_13P_A_1104


 13 12  0  0  0  0  0  0  0  0999 V2000
   24.3448   26.9895   24.8053 O   0  0  0  0  0  0  0  0  0  0  0  0
   23.3155   27.8022   23.8451 P   0  0  0  0  0  0  0  0  0  0  0  0
   23.8287   28.2962   22.3872 O   0  0  0  0  0  0  0  0  0  0  0  0
   22.1853   26.8039   23.3711 O   0  0  0  0  0  0  0  0  0  0  0  0
   22.5959   28.9280   24.6371 O   0  0  0  0  0  0  0  0  0  0  0  0
   21.5605   27.2724   22.7959 H   0  0  0  0  0  0  0  0  0  0  0  0
   21.9873   29.4000   24.0473 H   0  0  0  0  0  0  0  0  0  0  0  0
   23.9252   25.8411   25.5911 C   0  0  0  0  0  0  0  0  0  0  0  0
   24.9606   24.7396   25.7083 C   0  0  0  0  0  0  0  0  0  0  0  0
   25.0130   24.0462   26.7207 O   0  0  0  0  0  0  0  0  0  0  0  0
   25.9384   24.5116   24.5717 C   0  0  0  0  0  0  0  0  0  0  0  0
   25.6944   23.2525   23.9703 O   0  0  0  0  0  0  0  0  0  0  0  0
   25.8072   22.5513   24.6310 H   0  0  0  0  0  0  0  0  0  0  0  0
  2  3  2  0  0  0
  2  4  1  0  0  0
  2  5  1  0  0  0
  2  1  1  0  0  0
  1  8  1  0  0  0
  8  9  1  0  0  0
  9 10  2  0  0  0
  9 11  1  0  0  0
 11 12  1  0  0  0
  4  6  1  0  0  0
  5  7  1  0  0  0
 12 13  1  0  0  0
M  END
> <minimizedAffinity>
-5.74398

$$$$
1ADO_13P_A_1104


 13 12  0  0  0  0  0  0  0  0999 V2000
   23.2261   28.0972   24.8770 O   0  0  0  0  0  0  0  0  0  0  0  0
   23.1614   27.2496   23.4916 P   0  0  0  0  0  0  0  0  0  0  0  0
   23.5068   25.6645   23.5265 O   0  0  0  0  0  0  0  0  0  0  0  0
   21.6499   27.1513   23.0398 O   0  0  0  0  0  0  0  0  0  0  0  0
   23.9071   27.9976   22.3528 O   0  0  0  0  0  0  0  0  0  0  0  0
   21.5917   26.6477   22.2128 H   0  0  0  0  0  0  0  0  0  0  0  0
   23.8568   27.4762   21.5364 H   0  0  0  0  0  0  0  0  0  0  0  0
   24.4858   28.4308   25.5206 C   0  0  0  0  0  0  0  0  0  0  0  0
   24.7832   29.9153   25.6025 C   0  0  0  0  0  0  0  0  0  0  0  0
   24.8900   30.4646   26.6958 O   0  0  0  0  0  0  0  0  0  0  0  0
   24.9334   30.7171   24.3240 C   0  0  0  0  0  0  0  0  0  0  0  0
   23.7122   30.7142   23.6061 O   0  0  0  0  0  0  0  0  0  0  0  0
   23.4713   29.8018   23.3816 H   0  0  0  0  0  0  0  0  0  0  0  0
  2  3  2  0  0  0
  2  4  1  0  0  0
  2  5  1  0  0  0
  2  1  1  0  0  0
  1  8  1  0  0  0
  8  9  1  0  0  0
  9 10  2  0  0  0
  9 11  1  0  0  0
 11 12  1  0  0  0
  4  6  1  0  0  0
  5  7  1  0  0  0
 12 13  1  0  0  0
M  END
> <minimizedAffinity>
-5.64414

$$$$
1ADO_13P_A_1104


 13 12  0  0  0  0  0  0  0  0999 V2000
   23.5920   25.6156   23.9158 O   0  0  0  0  0  0  0  0  0  0  0  0
   23.2259   27.1667   23.5961 P   0  0  0  0  0  0  0  0  0  0  0  0
   23.9584   27.9034   22.3497 O   0  0  0  0  0  0  0  0  0  0  0  0
   21.7387   27.2262   23.0639 O   0  0  0  0  0  0  0  0  0  0  0  0
   23.2567   28.0188   24.8944 O   0  0  0  0  0  0  0  0  0  0  0  0
   21.5022   28.1462   22.8675 H   0  0  0  0  0  0  0  0  0  0  0  0
   23.0359   28.9392   24.6824 H   0  0  0  0  0  0  0  0  0  0  0  0
   24.8779   25.2233   24.4681 C   0  0  0  0  0  0  0  0  0  0  0  0
   24.7986   24.4087   25.7444 C   0  0  0  0  0  0  0  0  0  0  0  0
   24.6785   23.1875   25.6915 O   0  0  0  0  0  0  0  0  0  0  0  0
   24.8546   25.1158   27.0848 C   0  0  0  0  0  0  0  0  0  0  0  0
   24.1576   26.3468   27.0107 O   0  0  0  0  0  0  0  0  0  0  0  0
   24.5686   26.9111   26.3371 H   0  0  0  0  0  0  0  0  0  0  0  0
  2  3  2  0  0  0
  2  4  1  0  0  0
  2  5  1  0  0  0
  2  1  1  0  0  0
  1  8  1  0  0  0
  8  9  1  0  0  0
  9 10  2  0  0  0
  9 11  1  0  0  0
 11 12  1  0  0  0
  4  6  1  0  0  0
  5  7  1  0  0  0
 12 13  1  0  0  0
M  END
> <minimizedAffinity>
-5.59847

$$$$
1ADO_13P_A_1104


 13 12  0  0  0  0  0  0  0  0999 V2000
   24.8801   28.1507   24.7122 O   0  0  0  0  0  0  0  0  0  0  0  0
   23.6982   28.9827   23.9687 P   0  0  0  0  0  0  0  0  0  0  0  0
   24.0285   30.4603   23.3851 O   0  0  0  0  0  0  0  0  0  0  0  0
   23.3648   28.2593   22.6034 O   0  0  0  0  0  0  0  0  0  0  0  0
   22.3910   28.9512   24.8071 O   0  0  0  0  0  0  0  0  0  0  0  0
   22.6600   28.7430   22.1449 H   0  0  0  0  0  0  0  0  0  0  0  0
   21.6996   29.4524   24.3470 H   0  0  0  0  0  0  0  0  0  0  0  0
   24.6167   26.9263   25.4497 C   0  0  0  0  0  0  0  0  0  0  0  0
   24.6660   25.6604   24.6167 C   0  0  0  0  0  0  0  0  0  0  0  0
   23.7210   25.3608   23.8915 O   0  0  0  0  0  0  0  0  0  0  0  0
   25.8848   24.7616   24.6977 C   0  0  0  0  0  0  0  0  0  0  0  0
   25.6283   23.5390   24.0297 O   0  0  0  0  0  0  0  0  0  0  0  0
   24.8766   23.0925   24.4499 H   0  0  0  0  0  0  0  0  0  0  0  0
  2  3  2  0  0  0
  2  4  1  0  0  0
  2  5  1  0  0  0
  2  1  1  0  0  0
  1  8  1  0  0  0
  8  9  1  0  0  0
  9 10  2  0  0  0
  9 11  1  0  0  0
 11 12  1  0  0  0
  4  6  1  0  0  0
  5  7  1  0  0  0
 12 13  1  0  0  0
M  END
> <minimizedAffinity>
-5.55305

$$$$
1ADO_13P_A_1104


 13 12  0  0  0  0  0  0  0  0999 V2000
   25.1426   28.8434   24.6832 O   0  0  0  0  0  0  0  0  0  0  0  0
   23.7795   29.2464   23.8949 P   0  0  0  0  0  0  0  0  0  0  0  0
   23.2283   28.2612   22.7294 O   0  0  0  0  0  0  0  0  0  0  0  0
   22.5677   29.1207   24.9020 O   0  0  0  0  0  0  0  0  0  0  0  0
   23.8205   30.7337   23.4487 O   0  0  0  0  0  0  0  0  0  0  0  0
   21.7440   29.3579   24.4480 H   0  0  0  0  0  0  0  0  0  0  0  0
   22.9996   30.9537   22.9811 H   0  0  0  0  0  0  0  0  0  0  0  0
   25.5417   27.4596   24.8787 C   0  0  0  0  0  0  0  0  0  0  0  0
   24.4846   26.5778   25.5145 C   0  0  0  0  0  0  0  0  0  0  0  0
   24.0703   26.8263   26.6437 O   0  0  0  0  0  0  0  0  0  0  0  0
   23.9547   25.3800   24.7501 C   0  0  0  0  0  0  0  0  0  0  0  0
   22.6402   25.6427   24.2921 O   0  0  0  0  0  0  0  0  0  0  0  0
   22.0618   25.8154   25.0513 H   0  0  0  0  0  0  0  0  0  0  0  0
  2  3  2  0  0  0
  2  4  1  0  0  0
  2  5  1  0  0  0
  2  1  1  0  0  0
  1  8  1  0  0  0
  8  9  1  0  0  0
  9 10  2  0  0  0
  9 11  1  0  0  0
 11 12  1  0  0  0
  4  6  1  0  0  0
  5  7  1  0  0  0
 12 13  1  0  0  0
M  END
> <minimizedAffinity>
-5.40960

$$$$
1ADO_13P_A_1104


 13 12  0  0  0  0  0  0  0  0999 V2000
   25.4265   25.8019   26.3213 O   0  0  0  0  0  0  0  0  0  0  0  0
   25.0127   24.6907   25.2095 P   0  0  0  0  0  0  0  0  0  0  0  0
   26.1440   24.1589   24.1750 O   0  0  0  0  0  0  0  0  0  0  0  0
   24.7165   23.3288   25.9551 O   0  0  0  0  0  0  0  0  0  0  0  0
   23.6925   25.0908   24.4957 O   0  0  0  0  0  0  0  0  0  0  0  0
   24.4674   22.6524   25.3060 H   0  0  0  0  0  0  0  0  0  0  0  0
   23.4635   24.4161   23.8375 H   0  0  0  0  0  0  0  0  0  0  0  0
   24.6860   25.9677   27.5608 C   0  0  0  0  0  0  0  0  0  0  0  0
   25.1797   25.1160   28.7140 C   0  0  0  0  0  0  0  0  0  0  0  0
   24.3819   24.6457   29.5207 O   0  0  0  0  0  0  0  0  0  0  0  0
   26.6668   24.8623   28.8700 C   0  0  0  0  0  0  0  0  0  0  0  0
   27.0928   23.8944   27.9274 O   0  0  0  0  0  0  0  0  0  0  0  0
   26.6124   23.0650   28.0760 H   0  0  0  0  0  0  0  0  0  0  0  0
  2  3  2  0  0  0
  2  4  1  0  0  0
  2  5  1  0  0  0
  2  1  1  0  0  0
  1  8  1  0  0  0
  8  9  1  0  0  0
  9 10  2  0  0  0
  9 11  1  0  0  0
 11 12  1  0  0  0
  4  6  1  0  0  0
  5  7  1  0  0  0
 12 13  1  0  0  0
M  END
> <minimizedAffinity>
-5.36071

$$$$
1ADO_13P_A_1104


 13 12  0  0  0  0  0  0  0  0999 V2000
   24.5598   25.8537   25.1077 O   0  0  0  0  0  0  0  0  0  0  0  0
   25.4890   24.5336   25.2973 P   0  0  0  0  0  0  0  0  0  0  0  0
   26.9063   24.6784   26.0740 O   0  0  0  0  0  0  0  0  0  0  0  0
   24.7650   23.5579   26.3084 O   0  0  0  0  0  0  0  0  0  0  0  0
   25.6187   23.7545   23.9598 O   0  0  0  0  0  0  0  0  0  0  0  0
   25.3061   22.7627   26.4341 H   0  0  0  0  0  0  0  0  0  0  0  0
   26.1758   22.9719   24.0942 H   0  0  0  0  0  0  0  0  0  0  0  0
   23.3505   25.8381   24.3016 C   0  0  0  0  0  0  0  0  0  0  0  0
   23.1214   27.0894   23.4765 C   0  0  0  0  0  0  0  0  0  0  0  0
   21.9809   27.4285   23.1721 O   0  0  0  0  0  0  0  0  0  0  0  0
   24.3125   27.9093   23.0194 C   0  0  0  0  0  0  0  0  0  0  0  0
   25.3097   27.0562   22.4859 O   0  0  0  0  0  0  0  0  0  0  0  0
   25.5988   26.4304   23.1684 H   0  0  0  0  0  0  0  0  0  0  0  0
  2  3  2  0  0  0
  2  4  1  0  0  0
  2  5  1  0  0  0
  2  1  1  0  0  0
  1  8  1  0  0  0
  8  9  1  0  0  0
  9 10  2  0  0  0
  9 11  1  0  0  0
 11 12  1  0  0  0
  4  6  1  0  0  0
  5  7  1  0  0  0
 12 13  1  0  0  0
M  END
> <minimizedAffinity>
-5.20794

$$$$
1ADO_13P_A_1104


 13 12  0  0  0  0  0  0  0  0999 V2000
   25.5314   26.0595   24.5073 O   0  0  0  0  0  0  0  0  0  0  0  0
   25.9298   24.6192   25.1466 P   0  0  0  0  0  0  0  0  0  0  0  0
   24.9995   24.0004   26.3233 O   0  0  0  0  0  0  0  0  0  0  0  0
   25.6927   23.5063   24.0494 O   0  0  0  0  0  0  0  0  0  0  0  0
   27.4428   24.5704   25.4945 O   0  0  0  0  0  0  0  0  0  0  0  0
   25.9257   22.6381   24.4139 H   0  0  0  0  0  0  0  0  0  0  0  0
   27.6595   23.7044   25.8739 H   0  0  0  0  0  0  0  0  0  0  0  0
   24.8036   27.0654   25.2627 C   0  0  0  0  0  0  0  0  0  0  0  0
   23.5673   27.6069   24.5719 C   0  0  0  0  0  0  0  0  0  0  0  0
   23.0308   28.6334   24.9805 O   0  0  0  0  0  0  0  0  0  0  0  0
   22.9920   26.8628   23.3822 C   0  0  0  0  0  0  0  0  0  0  0  0
   21.6928   27.3473   23.0921 O   0  0  0  0  0  0  0  0  0  0  0  0
   21.1173   27.2096   23.8607 H   0  0  0  0  0  0  0  0  0  0  0  0
  2  3  2  0  0  0
  2  4  1  0  0  0
  2  5  1  0  0  0
  2  1  1  0  0  0
  1  8  1  0  0  0
  8  9  1  0  0  0
  9 10  2  0  0  0
  9 11  1  0  0  0
 11 12  1  0  0  0
  4  6  1  0  0  0
  5  7  1  0  0  0
 12 13  1  0  0  0
M  END
> <minimizedAffinity>
-5.18866

$$$$
