1AJV_NMB_A_501


 43 47  0  0  0  0  0  0  0  0999 V2000
   11.2671   23.5387    6.0891 N   0  0  0  0  0  0  0  0  0  0  0  0
   11.7204   22.0357    6.6274 S   0  0  0  0  0  0  0  0  0  0  0  0
   13.2962   22.0561    6.2973 N   0  0  0  0  0  0  0  0  0  0  0  0
   13.6133   21.8691    4.8565 C   0  0  0  0  0  0  0  0  0  0  0  0
   13.7620   23.2008    4.1448 C   0  0  0  0  0  0  0  0  0  0  0  0
   12.9060   24.3158    4.7033 C   0  0  0  0  0  0  0  0  0  0  0  0
   11.4068   24.0655    4.7497 C   0  0  0  0  0  0  0  0  0  0  0  0
   11.1088   20.9678    5.8708 O   0  0  0  0  0  0  0  0  0  0  0  0
   15.0960   23.6468    4.2399 O   0  0  0  0  0  0  0  0  0  0  0  0
   13.2208   25.4818    3.9800 O   0  0  0  0  0  0  0  0  0  0  0  0
   11.5881   22.0214    8.0461 O   0  0  0  0  0  0  0  0  0  0  0  0
   15.3184   23.8052    5.1706 H   0  0  0  0  0  0  0  0  0  0  0  0
   12.9880   25.3561    3.0468 H   0  0  0  0  0  0  0  0  0  0  0  0
   14.2103   22.6890    7.2738 C   0  0  0  0  0  0  0  0  0  0  0  0
   15.2365   21.8402    7.9734 C   0  0  0  0  0  0  0  0  0  0  0  0
   14.8412   20.7716    8.8159 C   0  0  0  0  0  0  0  0  0  0  0  0
   15.8193   19.9669    9.4651 C   0  0  0  0  0  0  0  0  0  0  0  0
   17.1906   20.2327    9.2709 C   0  0  0  0  0  0  0  0  0  0  0  0
   17.5828   21.3003    8.4331 C   0  0  0  0  0  0  0  0  0  0  0  0
   16.6072   22.0964    7.7889 C   0  0  0  0  0  0  0  0  0  0  0  0
   10.6870   23.1809    3.7160 C   0  0  0  0  0  0  0  0  0  0  0  0
   10.2399   24.0901    2.6809 O   0  0  0  0  0  0  0  0  0  0  0  0
    8.9379   24.4233    2.5948 C   0  0  0  0  0  0  0  0  0  0  0  0
    8.5195   25.5096    1.8006 C   0  0  0  0  0  0  0  0  0  0  0  0
    7.1671   25.8685    1.7092 C   0  0  0  0  0  0  0  0  0  0  0  0
    6.2103   25.1377    2.4243 C   0  0  0  0  0  0  0  0  0  0  0  0
    6.6168   24.0560    3.2231 C   0  0  0  0  0  0  0  0  0  0  0  0
    7.9811   23.7020    3.3019 C   0  0  0  0  0  0  0  0  0  0  0  0
   10.1105   24.0276    6.7061 C   0  0  0  0  0  0  0  0  0  0  0  0
    9.8531   25.1634    7.6349 C   0  0  0  0  0  0  0  0  0  0  0  0
   10.9081   25.8393    8.2586 C   0  0  0  0  0  0  0  0  0  0  0  0
   10.6470   26.8965    9.1311 C   0  0  0  0  0  0  0  0  0  0  0  0
    9.3036   27.2891    9.3920 C   0  0  0  0  0  0  0  0  0  0  0  0
    8.2323   26.6154    8.7764 C   0  0  0  0  0  0  0  0  0  0  0  0
    8.5118   25.5485    7.8946 C   0  0  0  0  0  0  0  0  0  0  0  0
   14.8485   20.9755    4.6454 C   0  0  0  0  0  0  0  0  0  0  0  0
   14.5915   20.0218    3.5878 O   0  0  0  0  0  0  0  0  0  0  0  0
   15.5608   19.1377    3.2335 C   0  0  0  0  0  0  0  0  0  0  0  0
   15.5668   18.5721    1.9404 C   0  0  0  0  0  0  0  0  0  0  0  0
   16.5702   17.6633    1.5700 C   0  0  0  0  0  0  0  0  0  0  0  0
   17.5785   17.3246    2.5002 C   0  0  0  0  0  0  0  0  0  0  0  0
   17.5768   17.8890    3.7875 C   0  0  0  0  0  0  0  0  0  0  0  0
   16.5678   18.7888    4.1455 C   0  0  0  0  0  0  0  0  0  0  0  0
  1  2  1  0  0  0
  1  7  1  0  0  0
  1 29  1  0  0  0
  2  3  1  0  0  0
  2  8  2  0  0  0
  2 11  2  0  0  0
  3  4  1  0  0  0
  3 14  1  0  0  0
  4  5  1  0  0  0
  4 36  1  0  0  0
  5  6  1  0  0  0
  5  9  1  0  0  0
  6  7  1  0  0  0
  6 10  1  0  0  0
  7 21  1  0  0  0
 29 30  1  0  0  0
 30 31  2  0  0  0
 30 35  1  0  0  0
 31 32  1  0  0  0
 32 33  2  0  0  0
 33 34  1  0  0  0
 34 35  2  0  0  0
 37 38  1  0  0  0
 37 36  1  0  0  0
 38 39  2  0  0  0
 38 43  1  0  0  0
 39 40  1  0  0  0
 40 41  2  0  0  0
 41 42  1  0  0  0
 42 43  2  0  0  0
 14 15  1  0  0  0
 15 16  2  0  0  0
 15 20  1  0  0  0
 16 17  1  0  0  0
 17 18  2  0  0  0
 18 19  1  0  0  0
 19 20  2  0  0  0
 21 22  1  0  0  0
 22 23  1  0  0  0
 23 24  2  0  0  0
 23 28  1  0  0  0
 24 25  1  0  0  0
 25 26  2  0  0  0
 26 27  1  0  0  0
 27 28  2  0  0  0
  9 12  1  0  0  0
 10 13  1  0  0  0
M  END
> <minimizedAffinity>
-12.62499

$$$$
1AJV_NMB_A_501


 43 47  0  0  0  0  0  0  0  0999 V2000
   13.3798   21.6061    5.5281 N   0  0  0  0  0  0  0  0  0  0  0  0
   11.7911   21.7112    5.9963 S   0  0  0  0  0  0  0  0  0  0  0  0
   11.3229   23.0256    5.1928 N   0  0  0  0  0  0  0  0  0  0  0  0
   11.8036   24.3004    5.7887 C   0  0  0  0  0  0  0  0  0  0  0  0
   13.1048   24.7529    5.1530 C   0  0  0  0  0  0  0  0  0  0  0  0
   13.9998   23.6308    4.6757 C   0  0  0  0  0  0  0  0  0  0  0  0
   14.4130   22.6004    5.7149 C   0  0  0  0  0  0  0  0  0  0  0  0
   11.6453   21.9644    7.4110 O   0  0  0  0  0  0  0  0  0  0  0  0
   12.8321   25.5449    4.0190 O   0  0  0  0  0  0  0  0  0  0  0  0
   15.1145   24.2254    4.0548 O   0  0  0  0  0  0  0  0  0  0  0  0
   11.0951   20.6032    5.4321 O   0  0  0  0  0  0  0  0  0  0  0  0
   12.3718   25.0096    3.3538 H   0  0  0  0  0  0  0  0  0  0  0  0
   15.6048   24.7515    4.7058 H   0  0  0  0  0  0  0  0  0  0  0  0
   10.9041   22.8743    3.7815 C   0  0  0  0  0  0  0  0  0  0  0  0
    9.6978   23.6271    3.2905 C   0  0  0  0  0  0  0  0  0  0  0  0
    9.8357   24.6993    2.3743 C   0  0  0  0  0  0  0  0  0  0  0  0
    8.6878   25.3987    1.9067 C   0  0  0  0  0  0  0  0  0  0  0  0
    7.4045   25.0250    2.3565 C   0  0  0  0  0  0  0  0  0  0  0  0
    7.2692   23.9580    3.2721 C   0  0  0  0  0  0  0  0  0  0  0  0
    8.4128   23.2648    3.7330 C   0  0  0  0  0  0  0  0  0  0  0  0
   14.5933   22.9564    7.2015 C   0  0  0  0  0  0  0  0  0  0  0  0
   15.9563   22.5843    7.5205 O   0  0  0  0  0  0  0  0  0  0  0  0
   16.1963   21.5087    8.2945 C   0  0  0  0  0  0  0  0  0  0  0  0
   15.1454   20.8466    8.9601 C   0  0  0  0  0  0  0  0  0  0  0  0
   15.3855   19.7298    9.7732 C   0  0  0  0  0  0  0  0  0  0  0  0
   16.6960   19.2630    9.9334 C   0  0  0  0  0  0  0  0  0  0  0  0
   17.7519   19.9184    9.2786 C   0  0  0  0  0  0  0  0  0  0  0  0
   17.4955   21.0385    8.4585 C   0  0  0  0  0  0  0  0  0  0  0  0
   13.9032   20.3115    5.6147 C   0  0  0  0  0  0  0  0  0  0  0  0
   14.9207   19.5681    4.8204 C   0  0  0  0  0  0  0  0  0  0  0  0
   16.2878   19.7112    5.0840 C   0  0  0  0  0  0  0  0  0  0  0  0
   17.2267   19.0120    4.3245 C   0  0  0  0  0  0  0  0  0  0  0  0
   16.7953   18.1518    3.2752 C   0  0  0  0  0  0  0  0  0  0  0  0
   15.4244   18.0020    2.9951 C   0  0  0  0  0  0  0  0  0  0  0  0
   14.4857   18.7147    3.7729 C   0  0  0  0  0  0  0  0  0  0  0  0
   10.7344   25.4061    5.7340 C   0  0  0  0  0  0  0  0  0  0  0  0
    9.6474   25.0850    6.6338 O   0  0  0  0  0  0  0  0  0  0  0  0
    9.2968   25.9706    7.6031 C   0  0  0  0  0  0  0  0  0  0  0  0
   10.2417   26.3740    8.5707 C   0  0  0  0  0  0  0  0  0  0  0  0
    9.8840   27.2930    9.5693 C   0  0  0  0  0  0  0  0  0  0  0  0
    8.5717   27.8166    9.5937 C   0  0  0  0  0  0  0  0  0  0  0  0
    7.6297   27.4192    8.6291 C   0  0  0  0  0  0  0  0  0  0  0  0
    7.9979   26.4983    7.6430 C   0  0  0  0  0  0  0  0  0  0  0  0
  1  2  1  0  0  0
  1  7  1  0  0  0
  1 29  1  0  0  0
  2  3  1  0  0  0
  2  8  2  0  0  0
  2 11  2  0  0  0
  3  4  1  0  0  0
  3 14  1  0  0  0
  4  5  1  0  0  0
  4 36  1  0  0  0
  5  6  1  0  0  0
  5  9  1  0  0  0
  6  7  1  0  0  0
  6 10  1  0  0  0
  7 21  1  0  0  0
 29 30  1  0  0  0
 30 31  2  0  0  0
 30 35  1  0  0  0
 31 32  1  0  0  0
 32 33  2  0  0  0
 33 34  1  0  0  0
 34 35  2  0  0  0
 37 38  1  0  0  0
 37 36  1  0  0  0
 38 39  2  0  0  0
 38 43  1  0  0  0
 39 40  1  0  0  0
 40 41  2  0  0  0
 41 42  1  0  0  0
 42 43  2  0  0  0
 14 15  1  0  0  0
 15 16  2  0  0  0
 15 20  1  0  0  0
 16 17  1  0  0  0
 17 18  2  0  0  0
 18 19  1  0  0  0
 19 20  2  0  0  0
 21 22  1  0  0  0
 22 23  1  0  0  0
 23 24  2  0  0  0
 23 28  1  0  0  0
 24 25  1  0  0  0
 25 26  2  0  0  0
 26 27  1  0  0  0
 27 28  2  0  0  0
  9 12  1  0  0  0
 10 13  1  0  0  0
M  END
> <minimizedAffinity>
-10.70911

$$$$
1AJV_NMB_A_501


 43 47  0  0  0  0  0  0  0  0999 V2000
   11.5730   23.1352    4.3337 N   0  0  0  0  0  0  0  0  0  0  0  0
   13.2166   23.0440    4.1224 S   0  0  0  0  0  0  0  0  0  0  0  0
   13.6486   22.2272    5.4410 N   0  0  0  0  0  0  0  0  0  0  0  0
   13.6402   23.0417    6.6852 C   0  0  0  0  0  0  0  0  0  0  0  0
   12.3178   22.9188    7.4187 C   0  0  0  0  0  0  0  0  0  0  0  0
   11.1177   22.6925    6.5261 C   0  0  0  0  0  0  0  0  0  0  0  0
   10.8671   23.7324    5.4454 C   0  0  0  0  0  0  0  0  0  0  0  0
   13.8533   24.3403    4.1589 O   0  0  0  0  0  0  0  0  0  0  0  0
   12.3615   21.8202    8.3011 O   0  0  0  0  0  0  0  0  0  0  0  0
   10.0005   22.5307    7.3671 O   0  0  0  0  0  0  0  0  0  0  0  0
   13.4671   22.1986    3.0031 O   0  0  0  0  0  0  0  0  0  0  0  0
   12.4720   21.0014    7.7929 H   0  0  0  0  0  0  0  0  0  0  0  0
    9.8558   23.3456    7.8729 H   0  0  0  0  0  0  0  0  0  0  0  0
   13.5564   20.7505    5.4142 C   0  0  0  0  0  0  0  0  0  0  0  0
   14.6980   19.9555    4.8415 C   0  0  0  0  0  0  0  0  0  0  0  0
   16.0345   20.2239    5.2284 C   0  0  0  0  0  0  0  0  0  0  0  0
   17.1072   19.4593    4.6897 C   0  0  0  0  0  0  0  0  0  0  0  0
   16.8413   18.4282    3.7649 C   0  0  0  0  0  0  0  0  0  0  0  0
   15.5087   18.1641    3.3782 C   0  0  0  0  0  0  0  0  0  0  0  0
   14.4457   18.9257    3.9173 C   0  0  0  0  0  0  0  0  0  0  0  0
   11.2441   25.2140    5.6245 C   0  0  0  0  0  0  0  0  0  0  0  0
    9.9830   25.9198    5.7212 O   0  0  0  0  0  0  0  0  0  0  0  0
    9.5977   26.4506    6.8974 C   0  0  0  0  0  0  0  0  0  0  0  0
    8.4588   27.2764    6.9806 C   0  0  0  0  0  0  0  0  0  0  0  0
    8.0529   27.8389    8.1992 C   0  0  0  0  0  0  0  0  0  0  0  0
    8.7950   27.5811    9.3584 C   0  0  0  0  0  0  0  0  0  0  0  0
    9.9349   26.7634    9.2860 C   0  0  0  0  0  0  0  0  0  0  0  0
   10.3294   26.1989    8.0537 C   0  0  0  0  0  0  0  0  0  0  0  0
   10.8645   23.2996    3.1384 C   0  0  0  0  0  0  0  0  0  0  0  0
    9.5463   23.9110    2.8108 C   0  0  0  0  0  0  0  0  0  0  0  0
    8.3494   23.2516    3.1135 C   0  0  0  0  0  0  0  0  0  0  0  0
    7.1241   23.8371    2.7925 C   0  0  0  0  0  0  0  0  0  0  0  0
    7.0885   25.1082    2.1521 C   0  0  0  0  0  0  0  0  0  0  0  0
    8.2838   25.7806    1.8367 C   0  0  0  0  0  0  0  0  0  0  0  0
    9.5162   25.1767    2.1688 C   0  0  0  0  0  0  0  0  0  0  0  0
   14.8286   22.7087    7.6047 C   0  0  0  0  0  0  0  0  0  0  0  0
   14.6075   21.4340    8.2531 O   0  0  0  0  0  0  0  0  0  0  0  0
   15.6576   20.7750    8.8097 C   0  0  0  0  0  0  0  0  0  0  0  0
   15.4355   19.6324    9.6079 C   0  0  0  0  0  0  0  0  0  0  0  0
   16.5186   18.9466   10.1791 C   0  0  0  0  0  0  0  0  0  0  0  0
   17.8340   19.4053    9.9425 C   0  0  0  0  0  0  0  0  0  0  0  0
   18.0583   20.5409    9.1451 C   0  0  0  0  0  0  0  0  0  0  0  0
   16.9695   21.2183    8.5868 C   0  0  0  0  0  0  0  0  0  0  0  0
  1  2  1  0  0  0
  1  7  1  0  0  0
  1 29  1  0  0  0
  2  3  1  0  0  0
  2  8  2  0  0  0
  2 11  2  0  0  0
  3  4  1  0  0  0
  3 14  1  0  0  0
  4  5  1  0  0  0
  4 36  1  0  0  0
  5  6  1  0  0  0
  5  9  1  0  0  0
  6  7  1  0  0  0
  6 10  1  0  0  0
  7 21  1  0  0  0
 29 30  1  0  0  0
 30 31  2  0  0  0
 30 35  1  0  0  0
 31 32  1  0  0  0
 32 33  2  0  0  0
 33 34  1  0  0  0
 34 35  2  0  0  0
 37 38  1  0  0  0
 37 36  1  0  0  0
 38 39  2  0  0  0
 38 43  1  0  0  0
 39 40  1  0  0  0
 40 41  2  0  0  0
 41 42  1  0  0  0
 42 43  2  0  0  0
 14 15  1  0  0  0
 15 16  2  0  0  0
 15 20  1  0  0  0
 16 17  1  0  0  0
 17 18  2  0  0  0
 18 19  1  0  0  0
 19 20  2  0  0  0
 21 22  1  0  0  0
 22 23  1  0  0  0
 23 24  2  0  0  0
 23 28  1  0  0  0
 24 25  1  0  0  0
 25 26  2  0  0  0
 26 27  1  0  0  0
 27 28  2  0  0  0
  9 12  1  0  0  0
 10 13  1  0  0  0
M  END
> <minimizedAffinity>
-10.62176

$$$$
