1cbr_ligand


 22 22  0  0  0  0  0  0  0  0999 V2000
    5.1000    4.8086   -9.3143 C   0  0  0  0  0  0  0  0  0  0  0  0
    4.7585    6.0744   -9.5832 C   0  0  0  0  0  0  0  0  0  0  0  0
    5.1376    2.7868  -10.8407 C   0  0  0  0  0  0  0  0  0  0  0  0
    6.1005    1.7090  -11.3919 C   0  0  0  0  0  0  0  0  0  0  0  0
    7.3428    2.2343  -12.0354 C   0  0  0  0  0  0  0  0  0  0  0  0
    8.1491    3.0893  -11.1178 C   0  0  0  0  0  0  0  0  0  0  0  0
    7.2965    4.0741  -10.3081 C   0  0  0  0  0  0  0  0  0  0  0  0
    5.9560    3.8984  -10.1046 C   0  0  0  0  0  0  0  0  0  0  0  0
    4.1736    2.1075   -9.8601 C   0  0  0  0  0  0  0  0  0  0  0  0
    4.3304    3.4246  -12.0039 C   0  0  0  0  0  0  0  0  0  0  0  0
    8.1914    5.1398   -9.6700 C   0  0  0  0  0  0  0  0  0  0  0  0
    3.9266    6.9310   -8.7683 C   0  0  0  0  0  0  0  0  0  0  0  0
    4.5001    7.5640   -7.7243 C   0  0  0  0  0  0  0  0  0  0  0  0
    2.4495    7.1404   -9.1256 C   0  0  0  0  0  0  0  0  0  0  0  0
    3.7840    8.4361   -6.8151 C   0  0  0  0  0  0  0  0  0  0  0  0
    3.9457    9.7570   -6.9347 C   0  0  0  0  0  0  0  0  0  0  0  0
    3.2930   10.7087   -6.0635 C   0  0  0  0  0  0  0  0  0  0  0  0
    4.0034   11.2607   -5.0480 C   0  0  0  0  0  0  0  0  0  0  0  0
    1.8141   11.0482   -6.3168 C   0  0  0  0  0  0  0  0  0  0  0  0
    3.5381   12.2343   -4.0497 C   0  0  0  0  0  0  0  0  0  0  0  0
    3.3924   13.4312   -4.3827 O   0  0  0  0  0  0  0  0  0  0  0  0
    3.2934   11.8450   -2.8857 O   0  0  0  0  0  0  0  0  0  0  0  0
  3  4  1  0  0  0
  3  8  1  0  0  0
  3  9  1  0  0  0
  3 10  1  0  0  0
  4  5  1  0  0  0
  5  6  1  0  0  0
  6  7  1  0  0  0
  7  8  2  0  0  0
  7 11  1  0  0  0
  8  1  1  0  0  0
  1  2  2  0  0  0
  2 12  1  0  0  0
 12 13  2  0  0  0
 12 14  1  0  0  0
 13 15  1  0  0  0
 15 16  2  0  0  0
 16 17  1  0  0  0
 17 18  2  0  0  0
 17 19  1  0  0  0
 18 20  1  0  0  0
 20 21  1  0  0  0
 20 22  2  0  0  0
M  CHG 1  21  -1
M  END
> <minimizedAffinity>
-9.06052

$$$$
1cbr_ligand


 22 22  0  0  0  0  0  0  0  0999 V2000
    5.1252    4.9010   -9.5298 C   0  0  0  0  0  0  0  0  0  0  0  0
    4.5699    6.0753   -9.8520 C   0  0  0  0  0  0  0  0  0  0  0  0
    7.4221    3.8565   -9.7595 C   0  0  0  0  0  0  0  0  0  0  0  0
    8.3486    3.1981  -10.8086 C   0  0  0  0  0  0  0  0  0  0  0  0
    7.7425    2.0647  -11.5711 C   0  0  0  0  0  0  0  0  0  0  0  0
    6.4994    2.4573  -12.2948 C   0  0  0  0  0  0  0  0  0  0  0  0
    5.5612    3.3289  -11.4508 C   0  0  0  0  0  0  0  0  0  0  0  0
    5.9877    4.0324  -10.3588 C   0  0  0  0  0  0  0  0  0  0  0  0
    8.0112    5.2251   -9.3959 C   0  0  0  0  0  0  0  0  0  0  0  0
    7.3447    2.9703   -8.4867 C   0  0  0  0  0  0  0  0  0  0  0  0
    4.1787    3.3957  -12.1050 C   0  0  0  0  0  0  0  0  0  0  0  0
    3.7421    6.8968   -8.9978 C   0  0  0  0  0  0  0  0  0  0  0  0
    4.3373    7.5554   -7.9821 C   0  0  0  0  0  0  0  0  0  0  0  0
    2.2419    7.0424   -9.2839 C   0  0  0  0  0  0  0  0  0  0  0  0
    3.6289    8.3975   -7.0392 C   0  0  0  0  0  0  0  0  0  0  0  0
    3.9341    9.6973   -6.9871 C   0  0  0  0  0  0  0  0  0  0  0  0
    3.3002   10.6151   -6.0671 C   0  0  0  0  0  0  0  0  0  0  0  0
    4.0498   11.1847   -5.0903 C   0  0  0  0  0  0  0  0  0  0  0  0
    1.7968   10.8997   -6.2265 C   0  0  0  0  0  0  0  0  0  0  0  0
    3.6097   12.1305   -4.0545 C   0  0  0  0  0  0  0  0  0  0  0  0
    3.4342   11.7212   -2.8856 O   0  0  0  0  0  0  0  0  0  0  0  0
    3.4223   13.3289   -4.3627 O   0  0  0  0  0  0  0  0  0  0  0  0
  3  4  1  0  0  0
  3  8  1  0  0  0
  3  9  1  0  0  0
  3 10  1  0  0  0
  4  5  1  0  0  0
  5  6  1  0  0  0
  6  7  1  0  0  0
  7  8  2  0  0  0
  7 11  1  0  0  0
  8  1  1  0  0  0
  1  2  2  0  0  0
  2 12  1  0  0  0
 12 13  2  0  0  0
 12 14  1  0  0  0
 13 15  1  0  0  0
 15 16  2  0  0  0
 16 17  1  0  0  0
 17 18  2  0  0  0
 17 19  1  0  0  0
 18 20  1  0  0  0
 20 21  1  0  0  0
 20 22  2  0  0  0
M  CHG 1  21  -1
M  END
> <minimizedAffinity>
-8.93545

$$$$
1cbr_ligand


 22 22  0  0  0  0  0  0  0  0999 V2000
    5.2022    4.6939   -9.5386 C   0  0  0  0  0  0  0  0  0  0  0  0
    4.4678    5.7464   -9.9181 C   0  0  0  0  0  0  0  0  0  0  0  0
    7.4711    3.6259   -9.8998 C   0  0  0  0  0  0  0  0  0  0  0  0
    8.3027    2.8960  -10.9807 C   0  0  0  0  0  0  0  0  0  0  0  0
    7.6332    1.7180  -11.6112 C   0  0  0  0  0  0  0  0  0  0  0  0
    6.3309    2.0683  -12.2473 C   0  0  0  0  0  0  0  0  0  0  0  0
    5.4695    2.9976  -11.3833 C   0  0  0  0  0  0  0  0  0  0  0  0
    5.9895    3.7690  -10.3813 C   0  0  0  0  0  0  0  0  0  0  0  0
    8.0885    5.0125   -9.6797 C   0  0  0  0  0  0  0  0  0  0  0  0
    7.5067    2.8251   -8.5698 C   0  0  0  0  0  0  0  0  0  0  0  0
    4.0349    3.0281  -11.9167 C   0  0  0  0  0  0  0  0  0  0  0  0
    3.7243    6.6324   -9.0508 C   0  0  0  0  0  0  0  0  0  0  0  0
    4.3384    7.0976   -7.9436 C   0  0  0  0  0  0  0  0  0  0  0  0
    2.2980    7.0588   -9.4212 C   0  0  0  0  0  0  0  0  0  0  0  0
    3.7086    7.9761   -6.9784 C   0  0  0  0  0  0  0  0  0  0  0  0
    4.4400    8.9472   -6.4240 C   0  0  0  0  0  0  0  0  0  0  0  0
    3.9105    9.8608   -5.4363 C   0  0  0  0  0  0  0  0  0  0  0  0
    3.4316   11.0621   -5.8460 C   0  0  0  0  0  0  0  0  0  0  0  0
    3.9227    9.4373   -3.9574 C   0  0  0  0  0  0  0  0  0  0  0  0
    2.8606   12.1333   -5.0168 C   0  0  0  0  0  0  0  0  0  0  0  0
    3.6269   12.9375   -4.4417 O   0  0  0  0  0  0  0  0  0  0  0  0
    1.6172   12.2214   -4.9054 O   0  0  0  0  0  0  0  0  0  0  0  0
  3  4  1  0  0  0
  3  8  1  0  0  0
  3  9  1  0  0  0
  3 10  1  0  0  0
  4  5  1  0  0  0
  5  6  1  0  0  0
  6  7  1  0  0  0
  7  8  2  0  0  0
  7 11  1  0  0  0
  8  1  1  0  0  0
  1  2  2  0  0  0
  2 12  1  0  0  0
 12 13  2  0  0  0
 12 14  1  0  0  0
 13 15  1  0  0  0
 15 16  2  0  0  0
 16 17  1  0  0  0
 17 18  2  0  0  0
 17 19  1  0  0  0
 18 20  1  0  0  0
 20 21  1  0  0  0
 20 22  2  0  0  0
M  CHG 1  21  -1
M  END
> <minimizedAffinity>
-8.71597

$$$$
1cbr_ligand


 22 22  0  0  0  0  0  0  0  0999 V2000
    4.9199    8.4786   -5.9195 C   0  0  0  0  0  0  0  0  0  0  0  0
    4.2493    8.2412   -7.0531 C   0  0  0  0  0  0  0  0  0  0  0  0
    4.4554    8.3236   -3.4336 C   0  0  0  0  0  0  0  0  0  0  0  0
    3.6996    9.0554   -2.2996 C   0  0  0  0  0  0  0  0  0  0  0  0
    4.0089   10.5111   -2.1644 C   0  0  0  0  0  0  0  0  0  0  0  0
    3.7352   11.2763   -3.4145 C   0  0  0  0  0  0  0  0  0  0  0  0
    4.2256   10.5595   -4.6786 C   0  0  0  0  0  0  0  0  0  0  0  0
    4.4679    9.2146   -4.7195 C   0  0  0  0  0  0  0  0  0  0  0  0
    3.7281    7.0033   -3.7161 C   0  0  0  0  0  0  0  0  0  0  0  0
    5.9157    8.0283   -2.9959 C   0  0  0  0  0  0  0  0  0  0  0  0
    4.2392   11.5325   -5.8605 C   0  0  0  0  0  0  0  0  0  0  0  0
    4.7318    7.5011   -8.1973 C   0  0  0  0  0  0  0  0  0  0  0  0
    6.0243    7.1152   -8.2032 C   0  0  0  0  0  0  0  0  0  0  0  0
    3.7749    7.1319   -9.3382 C   0  0  0  0  0  0  0  0  0  0  0  0
    6.6452    6.3853   -9.2902 C   0  0  0  0  0  0  0  0  0  0  0  0
    7.4670    5.3740   -8.9950 C   0  0  0  0  0  0  0  0  0  0  0  0
    8.1511    4.5990  -10.0059 C   0  0  0  0  0  0  0  0  0  0  0  0
    8.3693    3.2788   -9.7823 C   0  0  0  0  0  0  0  0  0  0  0  0
    8.6148    5.3067  -11.2907 C   0  0  0  0  0  0  0  0  0  0  0  0
    9.0453    2.3166  -10.6644 C   0  0  0  0  0  0  0  0  0  0  0  0
   10.2351    2.0059  -10.4349 O   0  0  0  0  0  0  0  0  0  0  0  0
    8.4149    1.8241  -11.6269 O   0  0  0  0  0  0  0  0  0  0  0  0
  3  4  1  0  0  0
  3  8  1  0  0  0
  3  9  1  0  0  0
  3 10  1  0  0  0
  4  5  1  0  0  0
  5  6  1  0  0  0
  6  7  1  0  0  0
  7  8  2  0  0  0
  7 11  1  0  0  0
  8  1  1  0  0  0
  1  2  2  0  0  0
  2 12  1  0  0  0
 12 13  2  0  0  0
 12 14  1  0  0  0
 13 15  1  0  0  0
 15 16  2  0  0  0
 16 17  1  0  0  0
 17 18  2  0  0  0
 17 19  1  0  0  0
 18 20  1  0  0  0
 20 21  1  0  0  0
 20 22  2  0  0  0
M  CHG 1  21  -1
M  END
> <minimizedAffinity>
-8.63051

$$$$
1cbr_ligand


 22 22  0  0  0  0  0  0  0  0999 V2000
    5.6528    4.5254   -9.1315 C   0  0  0  0  0  0  0  0  0  0  0  0
    4.8093    5.4642   -9.5767 C   0  0  0  0  0  0  0  0  0  0  0  0
    5.6375    2.1964  -10.1290 C   0  0  0  0  0  0  0  0  0  0  0  0
    6.5950    1.1139  -10.6805 C   0  0  0  0  0  0  0  0  0  0  0  0
    7.5348    1.5782  -11.7455 C   0  0  0  0  0  0  0  0  0  0  0  0
    8.3940    2.7126  -11.3005 C   0  0  0  0  0  0  0  0  0  0  0  0
    7.6216    3.7820  -10.5182 C   0  0  0  0  0  0  0  0  0  0  0  0
    6.4212    3.5331   -9.9129 C   0  0  0  0  0  0  0  0  0  0  0  0
    5.0724    1.6968   -8.7936 C   0  0  0  0  0  0  0  0  0  0  0  0
    4.4731    2.4362  -11.1279 C   0  0  0  0  0  0  0  0  0  0  0  0
    8.4613    5.0570  -10.4053 C   0  0  0  0  0  0  0  0  0  0  0  0
    4.0897    6.4243   -8.7703 C   0  0  0  0  0  0  0  0  0  0  0  0
    4.7337    6.9829   -7.7250 C   0  0  0  0  0  0  0  0  0  0  0  0
    2.6539    6.8202   -9.1377 C   0  0  0  0  0  0  0  0  0  0  0  0
    4.1304    7.9439   -6.8235 C   0  0  0  0  0  0  0  0  0  0  0  0
    4.8940    8.9200   -6.3241 C   0  0  0  0  0  0  0  0  0  0  0  0
    4.3921    9.9135   -5.4013 C   0  0  0  0  0  0  0  0  0  0  0  0
    3.6035   10.9096   -5.8771 C   0  0  0  0  0  0  0  0  0  0  0  0
    4.7831    9.8071   -3.9172 C   0  0  0  0  0  0  0  0  0  0  0  0
    2.9980   12.0162   -5.1222 C   0  0  0  0  0  0  0  0  0  0  0  0
    3.7218   12.9568   -4.7270 O   0  0  0  0  0  0  0  0  0  0  0  0
    1.7679   11.9967   -4.8925 O   0  0  0  0  0  0  0  0  0  0  0  0
  3  4  1  0  0  0
  3  8  1  0  0  0
  3  9  1  0  0  0
  3 10  1  0  0  0
  4  5  1  0  0  0
  5  6  1  0  0  0
  6  7  1  0  0  0
  7  8  2  0  0  0
  7 11  1  0  0  0
  8  1  1  0  0  0
  1  2  2  0  0  0
  2 12  1  0  0  0
 12 13  2  0  0  0
 12 14  1  0  0  0
 13 15  1  0  0  0
 15 16  2  0  0  0
 16 17  1  0  0  0
 17 18  2  0  0  0
 17 19  1  0  0  0
 18 20  1  0  0  0
 20 21  1  0  0  0
 20 22  2  0  0  0
M  CHG 1  21  -1
M  END
> <minimizedAffinity>
-8.54617

$$$$
1cbr_ligand


 22 22  0  0  0  0  0  0  0  0999 V2000
    4.7875    8.3354   -5.8825 C   0  0  0  0  0  0  0  0  0  0  0  0
    4.0871    7.9803   -6.9663 C   0  0  0  0  0  0  0  0  0  0  0  0
    4.4124    8.4830   -3.3812 C   0  0  0  0  0  0  0  0  0  0  0  0
    3.6928    9.3458   -2.3180 C   0  0  0  0  0  0  0  0  0  0  0  0
    3.9978   10.8077   -2.3718 C   0  0  0  0  0  0  0  0  0  0  0  0
    3.6754   11.4148   -3.6950 C   0  0  0  0  0  0  0  0  0  0  0  0
    4.1249   10.5504   -4.8794 C   0  0  0  0  0  0  0  0  0  0  0  0
    4.3739    9.2109   -4.7654 C   0  0  0  0  0  0  0  0  0  0  0  0
    3.6836    7.1368   -3.4748 C   0  0  0  0  0  0  0  0  0  0  0  0
    5.8891    8.2455   -2.9635 C   0  0  0  0  0  0  0  0  0  0  0  0
    4.0907   11.3725   -6.1704 C   0  0  0  0  0  0  0  0  0  0  0  0
    4.5325    7.1065   -8.0283 C   0  0  0  0  0  0  0  0  0  0  0  0
    3.6152    6.3210   -8.6291 C   0  0  0  0  0  0  0  0  0  0  0  0
    5.9991    7.1225   -8.4782 C   0  0  0  0  0  0  0  0  0  0  0  0
    3.9234    5.3862   -9.6927 C   0  0  0  0  0  0  0  0  0  0  0  0
    4.0251    4.0878   -9.3940 C   0  0  0  0  0  0  0  0  0  0  0  0
    4.3496    3.0800  -10.3787 C   0  0  0  0  0  0  0  0  0  0  0  0
    5.3290    3.3382  -11.2813 C   0  0  0  0  0  0  0  0  0  0  0  0
    3.5618    1.7587  -10.3702 C   0  0  0  0  0  0  0  0  0  0  0  0
    5.8092    2.4653  -12.3623 C   0  0  0  0  0  0  0  0  0  0  0  0
    5.2662    2.5280  -13.4874 O   0  0  0  0  0  0  0  0  0  0  0  0
    6.7555    1.6781  -12.1359 O   0  0  0  0  0  0  0  0  0  0  0  0
  3  4  1  0  0  0
  3  8  1  0  0  0
  3  9  1  0  0  0
  3 10  1  0  0  0
  4  5  1  0  0  0
  5  6  1  0  0  0
  6  7  1  0  0  0
  7  8  2  0  0  0
  7 11  1  0  0  0
  8  1  1  0  0  0
  1  2  2  0  0  0
  2 12  1  0  0  0
 12 13  2  0  0  0
 12 14  1  0  0  0
 13 15  1  0  0  0
 15 16  2  0  0  0
 16 17  1  0  0  0
 17 18  2  0  0  0
 17 19  1  0  0  0
 18 20  1  0  0  0
 20 21  1  0  0  0
 20 22  2  0  0  0
M  CHG 1  21  -1
M  END
> <minimizedAffinity>
-8.43634

$$$$
1cbr_ligand


 22 22  0  0  0  0  0  0  0  0999 V2000
    3.2317    8.7429   -6.0091 C   0  0  0  0  0  0  0  0  0  0  0  0
    4.1218    8.0257   -6.7051 C   0  0  0  0  0  0  0  0  0  0  0  0
    3.2979   11.1722   -5.2927 C   0  0  0  0  0  0  0  0  0  0  0  0
    3.8519   12.0854   -4.1738 C   0  0  0  0  0  0  0  0  0  0  0  0
    3.5011   11.6707   -2.7816 C   0  0  0  0  0  0  0  0  0  0  0  0
    3.9573   10.2879   -2.4606 C   0  0  0  0  0  0  0  0  0  0  0  0
    3.6858    9.2869   -3.5905 C   0  0  0  0  0  0  0  0  0  0  0  0
    3.4751    9.6721   -4.8853 C   0  0  0  0  0  0  0  0  0  0  0  0
    4.0824   11.4641   -6.5778 C   0  0  0  0  0  0  0  0  0  0  0  0
    1.7916   11.4695   -5.5255 C   0  0  0  0  0  0  0  0  0  0  0  0
    3.8441    7.8555   -3.0713 C   0  0  0  0  0  0  0  0  0  0  0  0
    3.8344    7.1380   -7.8093 C   0  0  0  0  0  0  0  0  0  0  0  0
    4.8435    6.3889   -8.2993 C   0  0  0  0  0  0  0  0  0  0  0  0
    2.4072    7.0284   -8.3612 C   0  0  0  0  0  0  0  0  0  0  0  0
    4.7031    5.4723   -9.4128 C   0  0  0  0  0  0  0  0  0  0  0  0
    4.5267    4.1733   -9.1542 C   0  0  0  0  0  0  0  0  0  0  0  0
    4.3980    3.1773  -10.1944 C   0  0  0  0  0  0  0  0  0  0  0  0
    4.4169    3.5782  -11.4904 C   0  0  0  0  0  0  0  0  0  0  0  0
    4.2327    1.7027   -9.7884 C   0  0  0  0  0  0  0  0  0  0  0  0
    4.2951    2.7414  -12.6929 C   0  0  0  0  0  0  0  0  0  0  0  0
    5.3041    2.5400  -13.4041 O   0  0  0  0  0  0  0  0  0  0  0  0
    3.1831    2.2436  -12.9795 O   0  0  0  0  0  0  0  0  0  0  0  0
  3  4  1  0  0  0
  3  8  1  0  0  0
  3  9  1  0  0  0
  3 10  1  0  0  0
  4  5  1  0  0  0
  5  6  1  0  0  0
  6  7  1  0  0  0
  7  8  2  0  0  0
  7 11  1  0  0  0
  8  1  1  0  0  0
  1  2  2  0  0  0
  2 12  1  0  0  0
 12 13  2  0  0  0
 12 14  1  0  0  0
 13 15  1  0  0  0
 15 16  2  0  0  0
 16 17  1  0  0  0
 17 18  2  0  0  0
 17 19  1  0  0  0
 18 20  1  0  0  0
 20 21  1  0  0  0
 20 22  2  0  0  0
M  CHG 1  21  -1
M  END
> <minimizedAffinity>
-8.30062

$$$$
1cbr_ligand


 22 22  0  0  0  0  0  0  0  0999 V2000
    4.6578    8.9765   -5.7948 C   0  0  0  0  0  0  0  0  0  0  0  0
    3.8628    8.1162   -6.4421 C   0  0  0  0  0  0  0  0  0  0  0  0
    3.7735   11.1905   -4.9372 C   0  0  0  0  0  0  0  0  0  0  0  0
    3.7657   12.0770   -3.6696 C   0  0  0  0  0  0  0  0  0  0  0  0
    3.3111   11.3961   -2.4194 C   0  0  0  0  0  0  0  0  0  0  0  0
    4.1298   10.1949   -2.0878 C   0  0  0  0  0  0  0  0  0  0  0  0
    4.4298    9.3153   -3.3078 C   0  0  0  0  0  0  0  0  0  0  0  0
    4.3570    9.7807   -4.5913 C   0  0  0  0  0  0  0  0  0  0  0  0
    4.6487   11.8769   -5.9931 C   0  0  0  0  0  0  0  0  0  0  0  0
    2.3290   11.0313   -5.4844 C   0  0  0  0  0  0  0  0  0  0  0  0
    4.9514    7.9496   -2.8533 C   0  0  0  0  0  0  0  0  0  0  0  0
    4.2093    7.3398   -7.6114 C   0  0  0  0  0  0  0  0  0  0  0  0
    5.4970    7.3397   -8.0130 C   0  0  0  0  0  0  0  0  0  0  0  0
    3.1402    6.5077   -8.3310 C   0  0  0  0  0  0  0  0  0  0  0  0
    5.9813    6.6227   -9.1755 C   0  0  0  0  0  0  0  0  0  0  0  0
    6.6673    5.4913   -8.9897 C   0  0  0  0  0  0  0  0  0  0  0  0
    7.2103    4.7153  -10.0823 C   0  0  0  0  0  0  0  0  0  0  0  0
    6.4862    3.6774  -10.5711 C   0  0  0  0  0  0  0  0  0  0  0  0
    8.5941    5.0916  -10.6389 C   0  0  0  0  0  0  0  0  0  0  0  0
    6.8493    2.7622  -11.6627 C   0  0  0  0  0  0  0  0  0  0  0  0
    6.3413    2.9256  -12.7940 O   0  0  0  0  0  0  0  0  0  0  0  0
    7.6634    1.8383  -11.4388 O   0  0  0  0  0  0  0  0  0  0  0  0
  3  4  1  0  0  0
  3  8  1  0  0  0
  3  9  1  0  0  0
  3 10  1  0  0  0
  4  5  1  0  0  0
  5  6  1  0  0  0
  6  7  1  0  0  0
  7  8  2  0  0  0
  7 11  1  0  0  0
  8  1  1  0  0  0
  1  2  2  0  0  0
  2 12  1  0  0  0
 12 13  2  0  0  0
 12 14  1  0  0  0
 13 15  1  0  0  0
 15 16  2  0  0  0
 16 17  1  0  0  0
 17 18  2  0  0  0
 17 19  1  0  0  0
 18 20  1  0  0  0
 20 21  1  0  0  0
 20 22  2  0  0  0
M  CHG 1  21  -1
M  END
> <minimizedAffinity>
-8.26783

$$$$
1cbr_ligand


 22 22  0  0  0  0  0  0  0  0999 V2000
    5.4767    4.8966   -8.8953 C   0  0  0  0  0  0  0  0  0  0  0  0
    4.9604    6.1173   -9.0811 C   0  0  0  0  0  0  0  0  0  0  0  0
    5.1965    2.9728  -10.5200 C   0  0  0  0  0  0  0  0  0  0  0  0
    6.0213    1.9189  -11.2957 C   0  0  0  0  0  0  0  0  0  0  0  0
    7.1425    2.4671  -12.1177 C   0  0  0  0  0  0  0  0  0  0  0  0
    8.1181    3.2532  -11.3094 C   0  0  0  0  0  0  0  0  0  0  0  0
    7.4453    4.1969  -10.3048 C   0  0  0  0  0  0  0  0  0  0  0  0
    6.1580    4.0262   -9.8771 C   0  0  0  0  0  0  0  0  0  0  0  0
    4.4050    2.2466   -9.4253 C   0  0  0  0  0  0  0  0  0  0  0  0
    4.2119    3.6916  -11.4819 C   0  0  0  0  0  0  0  0  0  0  0  0
    8.4637    5.2095   -9.7745 C   0  0  0  0  0  0  0  0  0  0  0  0
    4.3139    6.9375   -8.0816 C   0  0  0  0  0  0  0  0  0  0  0  0
    5.0202    7.2707   -6.9817 C   0  0  0  0  0  0  0  0  0  0  0  0
    2.8839    7.4455   -8.3059 C   0  0  0  0  0  0  0  0  0  0  0  0
    4.4933    8.0700   -5.8939 C   0  0  0  0  0  0  0  0  0  0  0  0
    5.2678    8.2894   -4.8274 C   0  0  0  0  0  0  0  0  0  0  0  0
    4.8271    9.0548   -3.6826 C   0  0  0  0  0  0  0  0  0  0  0  0
    4.9660    8.5188   -2.4441 C   0  0  0  0  0  0  0  0  0  0  0  0
    4.2069   10.4430   -3.9170 C   0  0  0  0  0  0  0  0  0  0  0  0
    4.5813    9.1160   -1.1570 C   0  0  0  0  0  0  0  0  0  0  0  0
    5.4062    9.8254   -0.5397 O   0  0  0  0  0  0  0  0  0  0  0  0
    3.4333    8.9050   -0.7055 O   0  0  0  0  0  0  0  0  0  0  0  0
  3  4  1  0  0  0
  3  8  1  0  0  0
  3  9  1  0  0  0
  3 10  1  0  0  0
  4  5  1  0  0  0
  5  6  1  0  0  0
  6  7  1  0  0  0
  7  8  2  0  0  0
  7 11  1  0  0  0
  8  1  1  0  0  0
  1  2  2  0  0  0
  2 12  1  0  0  0
 12 13  2  0  0  0
 12 14  1  0  0  0
 13 15  1  0  0  0
 15 16  2  0  0  0
 16 17  1  0  0  0
 17 18  2  0  0  0
 17 19  1  0  0  0
 18 20  1  0  0  0
 20 21  1  0  0  0
 20 22  2  0  0  0
M  CHG 1  21  -1
M  END
> <minimizedAffinity>
-8.25839

$$$$
1cbr_ligand


 22 22  0  0  0  0  0  0  0  0999 V2000
    3.3777    8.4591   -6.0228 C   0  0  0  0  0  0  0  0  0  0  0  0
    4.0965    8.2897   -7.1390 C   0  0  0  0  0  0  0  0  0  0  0  0
    4.1075    9.4892   -3.8261 C   0  0  0  0  0  0  0  0  0  0  0  0
    3.7393   10.6283   -2.8464 C   0  0  0  0  0  0  0  0  0  0  0  0
    3.6285   11.9858   -3.4614 C   0  0  0  0  0  0  0  0  0  0  0  0
    2.6258   12.0383   -4.5637 C   0  0  0  0  0  0  0  0  0  0  0  0
    2.7073   10.8337   -5.5095 C   0  0  0  0  0  0  0  0  0  0  0  0
    3.2954    9.6519   -5.1533 C   0  0  0  0  0  0  0  0  0  0  0  0
    3.7587    8.1541   -3.1568 C   0  0  0  0  0  0  0  0  0  0  0  0
    5.6272    9.5296   -4.1425 C   0  0  0  0  0  0  0  0  0  0  0  0
    1.9169   11.1183   -6.7893 C   0  0  0  0  0  0  0  0  0  0  0  0
    4.1326    7.1041   -7.9654 C   0  0  0  0  0  0  0  0  0  0  0  0
    5.2758    6.3888   -7.9975 C   0  0  0  0  0  0  0  0  0  0  0  0
    2.8825    6.6612   -8.7363 C   0  0  0  0  0  0  0  0  0  0  0  0
    5.4587    5.1923   -8.7943 C   0  0  0  0  0  0  0  0  0  0  0  0
    6.4994    5.1329   -9.6303 C   0  0  0  0  0  0  0  0  0  0  0  0
    6.7564    3.9935  -10.4825 C   0  0  0  0  0  0  0  0  0  0  0  0
    5.7039    3.3310  -11.0245 C   0  0  0  0  0  0  0  0  0  0  0  0
    8.2147    3.5711  -10.7308 C   0  0  0  0  0  0  0  0  0  0  0  0
    5.7382    2.1540  -11.9046 C   0  0  0  0  0  0  0  0  0  0  0  0
    5.6839    2.3138  -13.1440 O   0  0  0  0  0  0  0  0  0  0  0  0
    5.8247    1.0140  -11.3955 O   0  0  0  0  0  0  0  0  0  0  0  0
  3  4  1  0  0  0
  3  8  1  0  0  0
  3  9  1  0  0  0
  3 10  1  0  0  0
  4  5  1  0  0  0
  5  6  1  0  0  0
  6  7  1  0  0  0
  7  8  2  0  0  0
  7 11  1  0  0  0
  8  1  1  0  0  0
  1  2  2  0  0  0
  2 12  1  0  0  0
 12 13  2  0  0  0
 12 14  1  0  0  0
 13 15  1  0  0  0
 15 16  2  0  0  0
 16 17  1  0  0  0
 17 18  2  0  0  0
 17 19  1  0  0  0
 18 20  1  0  0  0
 20 21  1  0  0  0
 20 22  2  0  0  0
M  CHG 1  21  -1
M  END
> <minimizedAffinity>
-8.22295

$$$$
