1A99_PUT_A_371


 10  9  0  0  0  0  0  0  0  0999 V2000
  183.0578    7.7483   62.6473 C   0  0  0  0  0  0  0  0  0  0  0  0
  183.3886    6.7660   60.3729 N   0  0  0  0  0  0  0  0  0  0  0  0
  184.0764    7.3240   61.5743 C   0  0  0  0  0  0  0  0  0  0  0  0
  184.0845    6.4932   59.6789 H   0  0  0  0  0  0  0  0  0  0  0  0
  182.7711    7.4737   59.9752 H   0  0  0  0  0  0  0  0  0  0  0  0
  183.7080    8.2361   63.9301 C   0  0  0  0  0  0  0  0  0  0  0  0
  184.9146    7.4069   64.3227 C   0  0  0  0  0  0  0  0  0  0  0  0
  185.6885    8.0716   65.3992 N   0  0  0  0  0  0  0  0  0  0  0  0
  186.0201    8.9781   65.0695 H   0  0  0  0  0  0  0  0  0  0  0  0
  186.4866    7.4895   65.6534 H   0  0  0  0  0  0  0  0  0  0  0  0
  2  3  1  0  0  0
  3  1  1  0  0  0
  1  6  1  0  0  0
  6  7  1  0  0  0
  7  8  1  0  0  0
  2  4  1  0  0  0
  2  5  1  0  0  0
  8  9  1  0  0  0
  8 10  1  0  0  0
M  END
> <minimizedAffinity>
-4.94322

$$$$
1A99_PUT_A_371


 10  9  0  0  0  0  0  0  0  0999 V2000
  183.6798    8.2249   63.9383 C   0  0  0  0  0  0  0  0  0  0  0  0
  185.7075    8.0662   65.3912 N   0  0  0  0  0  0  0  0  0  0  0  0
  184.9264    7.4010   64.3071 C   0  0  0  0  0  0  0  0  0  0  0  0
  186.5263    7.5011   65.6161 H   0  0  0  0  0  0  0  0  0  0  0  0
  185.1227    8.1629   66.2213 H   0  0  0  0  0  0  0  0  0  0  0  0
  183.0724    7.8269   62.6046 C   0  0  0  0  0  0  0  0  0  0  0  0
  184.1112    7.3381   61.6148 C   0  0  0  0  0  0  0  0  0  0  0  0
  183.4669    6.7256   60.4276 N   0  0  0  0  0  0  0  0  0  0  0  0
  182.9060    5.9255   60.7200 H   0  0  0  0  0  0  0  0  0  0  0  0
  184.1851    6.4162   59.7727 H   0  0  0  0  0  0  0  0  0  0  0  0
  2  3  1  0  0  0
  3  1  1  0  0  0
  1  6  1  0  0  0
  6  7  1  0  0  0
  7  8  1  0  0  0
  2  4  1  0  0  0
  2  5  1  0  0  0
  8  9  1  0  0  0
  8 10  1  0  0  0
M  END
> <minimizedAffinity>
-4.93023

$$$$
1A99_PUT_A_371


 10  9  0  0  0  0  0  0  0  0999 V2000
  184.5923    7.6654   60.5220 C   0  0  0  0  0  0  0  0  0  0  0  0
  183.3418    6.1997   58.9298 N   0  0  0  0  0  0  0  0  0  0  0  0
  184.6836    6.5171   59.5013 C   0  0  0  0  0  0  0  0  0  0  0  0
  183.4301    5.4373   58.2579 H   0  0  0  0  0  0  0  0  0  0  0  0
  182.9683    7.0247   58.4606 H   0  0  0  0  0  0  0  0  0  0  0  0
  184.1432    7.2080   61.8987 C   0  0  0  0  0  0  0  0  0  0  0  0
  182.8109    7.8062   62.3048 C   0  0  0  0  0  0  0  0  0  0  0  0
  181.7143    7.2906   61.4495 N   0  0  0  0  0  0  0  0  0  0  0  0
  181.8931    7.5441   60.4778 H   0  0  0  0  0  0  0  0  0  0  0  0
  180.8287    7.6980   61.7498 H   0  0  0  0  0  0  0  0  0  0  0  0
  2  3  1  0  0  0
  3  1  1  0  0  0
  1  6  1  0  0  0
  6  7  1  0  0  0
  7  8  1  0  0  0
  2  4  1  0  0  0
  2  5  1  0  0  0
  8  9  1  0  0  0
  8 10  1  0  0  0
M  END
> <minimizedAffinity>
-4.89976

$$$$
1A99_PUT_A_371


 10  9  0  0  0  0  0  0  0  0999 V2000
  184.1148    7.1466   61.8750 C   0  0  0  0  0  0  0  0  0  0  0  0
  181.6499    7.2811   61.4830 N   0  0  0  0  0  0  0  0  0  0  0  0
  182.7916    7.8215   62.2782 C   0  0  0  0  0  0  0  0  0  0  0  0
  180.7871    7.7439   61.7691 H   0  0  0  0  0  0  0  0  0  0  0  0
  181.5673    6.2775   61.6455 H   0  0  0  0  0  0  0  0  0  0  0  0
  184.6552    7.6371   60.5432 C   0  0  0  0  0  0  0  0  0  0  0  0
  184.6860    6.5468   59.4906 C   0  0  0  0  0  0  0  0  0  0  0  0
  183.3176    6.2280   59.0157 N   0  0  0  0  0  0  0  0  0  0  0  0
  182.7544    5.8970   59.7991 H   0  0  0  0  0  0  0  0  0  0  0  0
  183.3663    5.5017   58.3012 H   0  0  0  0  0  0  0  0  0  0  0  0
  2  3  1  0  0  0
  3  1  1  0  0  0
  1  6  1  0  0  0
  6  7  1  0  0  0
  7  8  1  0  0  0
  2  4  1  0  0  0
  2  5  1  0  0  0
  8  9  1  0  0  0
  8 10  1  0  0  0
M  END
> <minimizedAffinity>
-4.89508

$$$$
1A99_PUT_A_371


 10  9  0  0  0  0  0  0  0  0999 V2000
  184.0574    7.1063   62.8951 C   0  0  0  0  0  0  0  0  0  0  0  0
  184.8494    8.2219   64.9869 N   0  0  0  0  0  0  0  0  0  0  0  0
  183.7799    8.1959   63.9461 C   0  0  0  0  0  0  0  0  0  0  0  0
  184.6419    8.9509   65.6695 H   0  0  0  0  0  0  0  0  0  0  0  0
  185.7485    8.4152   64.5457 H   0  0  0  0  0  0  0  0  0  0  0  0
  183.5318    7.4587   61.5146 C   0  0  0  0  0  0  0  0  0  0  0  0
  184.5156    7.1180   60.4129 C   0  0  0  0  0  0  0  0  0  0  0  0
  184.8216    8.3108   59.5863 N   0  0  0  0  0  0  0  0  0  0  0  0
  183.9644    8.6524   59.1518 H   0  0  0  0  0  0  0  0  0  0  0  0
  185.4933    8.0588   58.8612 H   0  0  0  0  0  0  0  0  0  0  0  0
  2  3  1  0  0  0
  3  1  1  0  0  0
  1  6  1  0  0  0
  6  7  1  0  0  0
  7  8  1  0  0  0
  2  4  1  0  0  0
  2  5  1  0  0  0
  8  9  1  0  0  0
  8 10  1  0  0  0
M  END
> <minimizedAffinity>
-4.64629

$$$$
1A99_PUT_A_371


 10  9  0  0  0  0  0  0  0  0999 V2000
  184.2396    7.2756   64.1409 C   0  0  0  0  0  0  0  0  0  0  0  0
  182.6630    7.0156   62.2189 N   0  0  0  0  0  0  0  0  0  0  0  0
  183.2676    7.9839   63.1805 C   0  0  0  0  0  0  0  0  0  0  0  0
  182.0245    7.5094   61.5954 H   0  0  0  0  0  0  0  0  0  0  0  0
  182.1498    6.3003   62.7341 H   0  0  0  0  0  0  0  0  0  0  0  0
  185.0514    8.2391   64.9888 C   0  0  0  0  0  0  0  0  0  0  0  0
  186.2812    7.5896   65.5916 C   0  0  0  0  0  0  0  0  0  0  0  0
  186.8256    8.4100   66.7008 N   0  0  0  0  0  0  0  0  0  0  0  0
  187.0934    9.3277   66.3453 H   0  0  0  0  0  0  0  0  0  0  0  0
  187.6436    7.9467   67.0966 H   0  0  0  0  0  0  0  0  0  0  0  0
  2  3  1  0  0  0
  3  1  1  0  0  0
  1  6  1  0  0  0
  6  7  1  0  0  0
  7  8  1  0  0  0
  2  4  1  0  0  0
  2  5  1  0  0  0
  8  9  1  0  0  0
  8 10  1  0  0  0
M  END
> <minimizedAffinity>
-4.33346

$$$$
1A99_PUT_A_371


 10  9  0  0  0  0  0  0  0  0999 V2000
  185.6272    7.2877   65.0212 C   0  0  0  0  0  0  0  0  0  0  0  0
  187.4550    7.3775   66.7236 N   0  0  0  0  0  0  0  0  0  0  0  0
  186.4036    8.1672   66.0174 C   0  0  0  0  0  0  0  0  0  0  0  0
  187.9535    7.9823   67.3763 H   0  0  0  0  0  0  0  0  0  0  0  0
  188.1119    6.9991   66.0412 H   0  0  0  0  0  0  0  0  0  0  0  0
  184.4040    7.9765   64.4418 C   0  0  0  0  0  0  0  0  0  0  0  0
  184.1343    7.5730   63.0059 C   0  0  0  0  0  0  0  0  0  0  0  0
  182.7029    7.2390   62.8078 N   0  0  0  0  0  0  0  0  0  0  0  0
  182.4499    6.4559   63.4104 H   0  0  0  0  0  0  0  0  0  0  0  0
  182.5452    6.9828   61.8332 H   0  0  0  0  0  0  0  0  0  0  0  0
  2  3  1  0  0  0
  3  1  1  0  0  0
  1  6  1  0  0  0
  6  7  1  0  0  0
  7  8  1  0  0  0
  2  4  1  0  0  0
  2  5  1  0  0  0
  8  9  1  0  0  0
  8 10  1  0  0  0
M  END
> <minimizedAffinity>
-4.14671

$$$$
1A99_PUT_A_371


 10  9  0  0  0  0  0  0  0  0999 V2000
  184.2382    6.7135   60.6355 C   0  0  0  0  0  0  0  0  0  0  0  0
  185.0855    8.6984   59.3747 N   0  0  0  0  0  0  0  0  0  0  0  0
  184.7072    8.1769   60.7211 C   0  0  0  0  0  0  0  0  0  0  0  0
  185.3918    9.6676   59.4593 H   0  0  0  0  0  0  0  0  0  0  0  0
  184.2788    8.6499   58.7524 H   0  0  0  0  0  0  0  0  0  0  0  0
  183.0726    6.5134   59.6828 C   0  0  0  0  0  0  0  0  0  0  0  0
  183.4752    5.7861   58.4153 C   0  0  0  0  0  0  0  0  0  0  0  0
  184.8890    6.0686   58.0670 N   0  0  0  0  0  0  0  0  0  0  0  0
  185.0069    7.0694   57.9097 H   0  0  0  0  0  0  0  0  0  0  0  0
  185.1385    5.5594   57.2191 H   0  0  0  0  0  0  0  0  0  0  0  0
  2  3  1  0  0  0
  3  1  1  0  0  0
  1  6  1  0  0  0
  6  7  1  0  0  0
  7  8  1  0  0  0
  2  4  1  0  0  0
  2  5  1  0  0  0
  8  9  1  0  0  0
  8 10  1  0  0  0
M  END
> <minimizedAffinity>
-2.04519

$$$$
