1A28_STR_A_1


 23 26  0  0  0  0  0  0  0  0999 V2000
   21.0005    9.4968   62.6858 C   0  0  0  0  0  0  0  0  0  0  0  0
   20.9780    8.9980   64.1528 C   0  0  0  0  0  0  0  0  0  0  0  0
   21.9452    7.8284   64.3076 C   0  0  0  0  0  0  0  0  0  0  0  0
   21.7110    6.9510   65.1570 O   0  0  0  0  0  0  0  0  0  0  0  0
   23.1717    7.7884   63.5259 C   0  0  0  0  0  0  0  0  0  0  0  0
   23.4422    8.7038   62.6133 C   0  0  0  0  0  0  0  0  0  0  0  0
   24.7915    8.6542   61.9058 C   0  0  0  0  0  0  0  0  0  0  0  0
   24.6606    8.8261   60.3805 C   0  0  0  0  0  0  0  0  0  0  0  0
   23.8093   10.0555   59.9707 C   0  0  0  0  0  0  0  0  0  0  0  0
   22.3896    9.9035   60.6078 C   0  0  0  0  0  0  0  0  0  0  0  0
   22.4273    9.8391   62.1800 C   0  0  0  0  0  0  0  0  0  0  0  0
   21.4253   11.0102   60.1077 C   0  0  0  0  0  0  0  0  0  0  0  0
   21.3634   11.0785   58.5563 C   0  0  0  0  0  0  0  0  0  0  0  0
   22.7672   11.2968   57.9508 C   0  0  0  0  0  0  0  0  0  0  0  0
   23.6438   10.0881   58.4478 C   0  0  0  0  0  0  0  0  0  0  0  0
   24.9305   10.1715   57.5896 C   0  0  0  0  0  0  0  0  0  0  0  0
   24.3783   10.6119   56.1854 C   0  0  0  0  0  0  0  0  0  0  0  0
   22.8906   11.0577   56.4095 C   0  0  0  0  0  0  0  0  0  0  0  0
   23.3722   12.6977   58.3185 C   0  0  0  0  0  0  0  0  0  0  0  0
   22.9544   11.1758   62.8285 C   0  0  0  0  0  0  0  0  0  0  0  0
   22.4236   12.2320   55.5327 C   0  0  0  0  0  0  0  0  0  0  0  0
   23.2280   12.8660   54.8838 O   0  0  0  0  0  0  0  0  0  0  0  0
   20.9758   12.5766   55.4797 C   0  0  0  0  0  0  0  0  0  0  0  0
  1  2  1  0  0  0
  1 11  1  0  0  0
  2  3  1  0  0  0
  3  4  2  0  0  0
  3  5  1  0  0  0
  5  6  2  0  0  0
  6  7  1  0  0  0
  6 11  1  0  0  0
  7  8  1  0  0  0
  8  9  1  0  0  0
  9 10  1  0  0  0
  9 15  1  0  0  0
 10 11  1  0  0  0
 10 12  1  0  0  0
 11 20  1  0  0  0
 12 13  1  0  0  0
 13 14  1  0  0  0
 14 15  1  0  0  0
 14 18  1  0  0  0
 14 19  1  0  0  0
 15 16  1  0  0  0
 16 17  1  0  0  0
 17 18  1  0  0  0
 18 21  1  0  0  0
 21 22  2  0  0  0
 21 23  1  0  0  0
M  END
> <minimizedAffinity>
-11.44493

$$$$
1A28_STR_A_1


 23 26  0  0  0  0  0  0  0  0999 V2000
   22.1015   12.9057   57.5839 C   0  0  0  0  0  0  0  0  0  0  0  0
   21.9927   13.4323   56.1306 C   0  0  0  0  0  0  0  0  0  0  0  0
   23.0215   12.7244   55.2544 C   0  0  0  0  0  0  0  0  0  0  0  0
   23.4987   13.3186   54.2718 O   0  0  0  0  0  0  0  0  0  0  0  0
   23.3746   11.3382   55.5199 C   0  0  0  0  0  0  0  0  0  0  0  0
   22.8874   10.6856   56.5594 C   0  0  0  0  0  0  0  0  0  0  0  0
   23.2220    9.2068   56.7166 C   0  0  0  0  0  0  0  0  0  0  0  0
   23.6531    8.8523   58.1524 C   0  0  0  0  0  0  0  0  0  0  0  0
   22.6692    9.3665   59.2349 C   0  0  0  0  0  0  0  0  0  0  0  0
   22.5469   10.9184   59.0891 C   0  0  0  0  0  0  0  0  0  0  0  0
   21.9975   11.3603   57.6818 C   0  0  0  0  0  0  0  0  0  0  0  0
   21.7099   11.5292   60.2428 C   0  0  0  0  0  0  0  0  0  0  0  0
   22.2473   11.1160   61.6413 C   0  0  0  0  0  0  0  0  0  0  0  0
   22.2961    9.5795   61.7887 C   0  0  0  0  0  0  0  0  0  0  0  0
   23.2273    9.0645   60.6295 C   0  0  0  0  0  0  0  0  0  0  0  0
   23.4971    7.5818   60.9868 C   0  0  0  0  0  0  0  0  0  0  0  0
   23.6291    7.6247   62.5525 C   0  0  0  0  0  0  0  0  0  0  0  0
   23.1150    9.0361   63.0062 C   0  0  0  0  0  0  0  0  0  0  0  0
   20.8688    8.9263   61.7779 C   0  0  0  0  0  0  0  0  0  0  0  0
   20.5199   10.8732   57.4283 C   0  0  0  0  0  0  0  0  0  0  0  0
   22.3670    9.0557   64.3500 C   0  0  0  0  0  0  0  0  0  0  0  0
   22.0083   10.1085   64.8328 O   0  0  0  0  0  0  0  0  0  0  0  0
   22.0786    7.7718   65.0471 C   0  0  0  0  0  0  0  0  0  0  0  0
  1  2  1  0  0  0
  1 11  1  0  0  0
  2  3  1  0  0  0
  3  4  2  0  0  0
  3  5  1  0  0  0
  5  6  2  0  0  0
  6  7  1  0  0  0
  6 11  1  0  0  0
  7  8  1  0  0  0
  8  9  1  0  0  0
  9 10  1  0  0  0
  9 15  1  0  0  0
 10 11  1  0  0  0
 10 12  1  0  0  0
 11 20  1  0  0  0
 12 13  1  0  0  0
 13 14  1  0  0  0
 14 15  1  0  0  0
 14 18  1  0  0  0
 14 19  1  0  0  0
 15 16  1  0  0  0
 16 17  1  0  0  0
 17 18  1  0  0  0
 18 21  1  0  0  0
 21 22  2  0  0  0
 21 23  1  0  0  0
M  END
> <minimizedAffinity>
-9.37847

$$$$
1A28_STR_A_1


 23 26  0  0  0  0  0  0  0  0999 V2000
   21.8590    9.7370   56.8685 C   0  0  0  0  0  0  0  0  0  0  0  0
   22.1288   10.1239   55.3925 C   0  0  0  0  0  0  0  0  0  0  0  0
   22.3033   11.6358   55.2864 C   0  0  0  0  0  0  0  0  0  0  0  0
   21.9797   12.2153   54.2348 O   0  0  0  0  0  0  0  0  0  0  0  0
   22.9213   12.3764   56.3755 C   0  0  0  0  0  0  0  0  0  0  0  0
   23.2689   11.7871   57.5050 C   0  0  0  0  0  0  0  0  0  0  0  0
   24.0032   12.6055   58.5608 C   0  0  0  0  0  0  0  0  0  0  0  0
   23.4216   12.3989   59.9723 C   0  0  0  0  0  0  0  0  0  0  0  0
   23.2712   10.9060   60.3632 C   0  0  0  0  0  0  0  0  0  0  0  0
   22.3502   10.2127   59.3069 C   0  0  0  0  0  0  0  0  0  0  0  0
   22.9354   10.2776   57.8472 C   0  0  0  0  0  0  0  0  0  0  0  0
   22.0149    8.7561   59.7201 C   0  0  0  0  0  0  0  0  0  0  0  0
   21.4212    8.6741   61.1540 C   0  0  0  0  0  0  0  0  0  0  0  0
   22.3770    9.3037   62.1907 C   0  0  0  0  0  0  0  0  0  0  0  0
   22.5905   10.7935   61.7313 C   0  0  0  0  0  0  0  0  0  0  0  0
   23.2909   11.4681   62.9368 C   0  0  0  0  0  0  0  0  0  0  0  0
   22.5766   10.7992   64.1669 C   0  0  0  0  0  0  0  0  0  0  0  0
   21.7653    9.5796   63.6041 C   0  0  0  0  0  0  0  0  0  0  0  0
   23.7171    8.5006   62.3424 C   0  0  0  0  0  0  0  0  0  0  0  0
   24.2877    9.4808   57.7007 C   0  0  0  0  0  0  0  0  0  0  0  0
   21.7025    8.3550   64.5327 C   0  0  0  0  0  0  0  0  0  0  0  0
   22.6490    8.0747   65.2367 O   0  0  0  0  0  0  0  0  0  0  0  0
   20.4673    7.5240   64.5672 C   0  0  0  0  0  0  0  0  0  0  0  0
  1  2  1  0  0  0
  1 11  1  0  0  0
  2  3  1  0  0  0
  3  4  2  0  0  0
  3  5  1  0  0  0
  5  6  2  0  0  0
  6  7  1  0  0  0
  6 11  1  0  0  0
  7  8  1  0  0  0
  8  9  1  0  0  0
  9 10  1  0  0  0
  9 15  1  0  0  0
 10 11  1  0  0  0
 10 12  1  0  0  0
 11 20  1  0  0  0
 12 13  1  0  0  0
 13 14  1  0  0  0
 14 15  1  0  0  0
 14 18  1  0  0  0
 14 19  1  0  0  0
 15 16  1  0  0  0
 16 17  1  0  0  0
 17 18  1  0  0  0
 18 21  1  0  0  0
 21 22  2  0  0  0
 21 23  1  0  0  0
M  END
> <minimizedAffinity>
-9.16925

$$$$
