1A4R_GNH_B_400


 37 39  0  0  0  0  0  0  0  0999 V2000
  105.3579   29.6597   -2.1881 C   0  0  0  0  0  0  0  0  0  0  0  0
  104.9807   30.9775   -2.5700 O   0  0  0  0  0  0  0  0  0  0  0  0
  106.0742   29.8565   -0.8547 C   0  0  0  0  0  0  0  0  0  0  0  0
  107.4801   29.7765   -1.0170 O   0  0  0  0  0  0  0  0  0  0  0  0
  105.6203   31.1953   -0.3108 C   0  0  0  0  0  0  0  0  0  0  0  0
  106.4441   31.8100    0.6805 O   0  0  0  0  0  0  0  0  0  0  0  0
  105.3876   31.9857   -1.6057 C   0  0  0  0  0  0  0  0  0  0  0  0
  107.7726   30.4577   -1.6426 H   0  0  0  0  0  0  0  0  0  0  0  0
  107.3268   31.9720    0.3122 H   0  0  0  0  0  0  0  0  0  0  0  0
  104.2345   32.9583   -1.6524 N   0  0  0  0  0  0  0  0  0  0  0  0
  102.8768   32.7046   -1.5452 C   0  0  0  0  0  0  0  0  0  0  0  0
  102.0749   33.7436   -1.6201 N   0  0  0  0  0  0  0  0  0  0  0  0
  102.9524   34.8249   -1.8013 C   0  0  0  0  0  0  0  0  0  0  0  0
  102.6931   36.2784   -1.9607 C   0  0  0  0  0  0  0  0  0  0  0  0
  101.5958   36.8420   -1.9695 O   0  0  0  0  0  0  0  0  0  0  0  0
  103.8858   37.0803   -2.1280 N   0  0  0  0  0  0  0  0  0  0  0  0
  105.2230   36.5718   -2.1383 C   0  0  0  0  0  0  0  0  0  0  0  0
  106.2348   37.4408   -2.2988 N   0  0  0  0  0  0  0  0  0  0  0  0
  105.4940   35.2098   -1.9897 N   0  0  0  0  0  0  0  0  0  0  0  0
  104.3043   34.3759   -1.8217 C   0  0  0  0  0  0  0  0  0  0  0  0
  103.7680   38.0509   -2.2437 H   0  0  0  0  0  0  0  0  0  0  0  0
  106.0466   38.4015   -2.4037 H   0  0  0  0  0  0  0  0  0  0  0  0
  107.1644   37.1170   -2.3115 H   0  0  0  0  0  0  0  0  0  0  0  0
  104.0665   28.7761   -2.1792 C   0  0  0  0  0  0  0  0  0  0  0  0
  103.9227   27.9965   -0.9675 O   0  0  0  0  0  0  0  0  0  0  0  0
  102.5760   27.2902   -0.5315 P   0  0  0  0  0  0  0  0  0  0  0  0
  102.7860   26.3266    0.5688 O   0  0  0  0  0  0  0  0  0  0  0  0
  101.4777   28.2860   -0.3892 O   0  0  0  0  0  0  0  0  0  0  0  0
  100.6629   27.8328   -0.1218 H   0  0  0  0  0  0  0  0  0  0  0  0
  102.3892   26.4561   -1.9087 O   0  0  0  0  0  0  0  0  0  0  0  0
  100.1108   25.7669   -1.5467 N   0  0  0  0  0  0  0  0  0  0  0  0
  101.1548   25.7706   -2.5968 P   0  0  0  0  0  0  0  0  0  0  0  0
  100.7524   26.7171   -3.7038 O   0  0  0  0  0  0  0  0  0  0  0  0
  101.5568   24.4894   -3.2426 O   0  0  0  0  0  0  0  0  0  0  0  0
   99.2626   25.3338   -1.9120 H   0  0  0  0  0  0  0  0  0  0  0  0
   99.9085   26.7261   -1.2650 H   0  0  0  0  0  0  0  0  0  0  0  0
  100.7827   24.0815   -3.6614 H   0  0  0  0  0  0  0  0  0  0  0  0
 31 32  1  0  0  0
 32 33  2  0  0  0
 32 34  1  0  0  0
 32 30  1  0  0  0
 30 26  1  0  0  0
 26 27  2  0  0  0
 26 28  1  0  0  0
 26 25  1  0  0  0
 25 24  1  0  0  0
 24  1  1  0  0  0
  1  2  1  0  0  0
  1  3  1  0  0  0
  2  7  1  0  0  0
  3  4  1  0  0  0
  3  5  1  0  0  0
  5  6  1  0  0  0
  5  7  1  0  0  0
  7 10  1  0  0  0
 10 11  1  0  0  0
 10 20  1  0  0  0
 11 12  2  0  0  0
 12 13  1  0  0  0
 13 14  1  0  0  0
 13 20  2  0  0  0
 14 15  2  0  0  0
 14 16  1  0  0  0
 16 17  1  0  0  0
 17 18  1  0  0  0
 17 19  2  0  0  0
 19 20  1  0  0  0
 31 35  1  0  0  0
 31 36  1  0  0  0
 34 37  1  0  0  0
 28 29  1  0  0  0
  4  8  1  0  0  0
  6  9  1  0  0  0
 16 21  1  0  0  0
 18 22  1  0  0  0
 18 23  1  0  0  0
M  END
> <minimizedAffinity>
-9.90380

$$$$
1A4R_GNH_B_400


 37 39  0  0  0  0  0  0  0  0999 V2000
  105.3753   29.4277   -1.4281 C   0  0  0  0  0  0  0  0  0  0  0  0
  104.8253   30.5528   -2.1037 O   0  0  0  0  0  0  0  0  0  0  0  0
  106.4727   30.0274   -0.5531 C   0  0  0  0  0  0  0  0  0  0  0  0
  107.7528   29.8033   -1.1192 O   0  0  0  0  0  0  0  0  0  0  0  0
  106.1486   31.4987   -0.3965 C   0  0  0  0  0  0  0  0  0  0  0  0
  107.2147   32.3634   -0.0032 O   0  0  0  0  0  0  0  0  0  0  0  0
  105.4679   31.8038   -1.7378 C   0  0  0  0  0  0  0  0  0  0  0  0
  107.7906   30.2038   -2.0018 H   0  0  0  0  0  0  0  0  0  0  0  0
  107.9209   32.3287   -0.6673 H   0  0  0  0  0  0  0  0  0  0  0  0
  104.3117   32.7737   -1.7487 N   0  0  0  0  0  0  0  0  0  0  0  0
  102.9551   32.5122   -1.6460 C   0  0  0  0  0  0  0  0  0  0  0  0
  102.1497   33.5505   -1.6839 N   0  0  0  0  0  0  0  0  0  0  0  0
  103.0233   34.6401   -1.8316 C   0  0  0  0  0  0  0  0  0  0  0  0
  102.7590   36.0973   -1.9417 C   0  0  0  0  0  0  0  0  0  0  0  0
  101.6599   36.6573   -1.9284 O   0  0  0  0  0  0  0  0  0  0  0  0
  103.9487   36.9081   -2.0856 N   0  0  0  0  0  0  0  0  0  0  0  0
  105.2874   36.4046   -2.1167 C   0  0  0  0  0  0  0  0  0  0  0  0
  106.2960   37.2817   -2.2511 N   0  0  0  0  0  0  0  0  0  0  0  0
  105.5631   35.0393   -2.0145 N   0  0  0  0  0  0  0  0  0  0  0  0
  104.3765   34.1964   -1.8708 C   0  0  0  0  0  0  0  0  0  0  0  0
  103.8275   37.8816   -2.1685 H   0  0  0  0  0  0  0  0  0  0  0  0
  106.1046   38.2447   -2.3234 H   0  0  0  0  0  0  0  0  0  0  0  0
  107.2266   36.9615   -2.2773 H   0  0  0  0  0  0  0  0  0  0  0  0
  104.2051   28.6897   -0.6969 C   0  0  0  0  0  0  0  0  0  0  0  0
  103.7214   27.5355   -1.4253 O   0  0  0  0  0  0  0  0  0  0  0  0
  102.1991   27.1095   -1.4867 P   0  0  0  0  0  0  0  0  0  0  0  0
  101.3783   27.8404   -0.4991 O   0  0  0  0  0  0  0  0  0  0  0  0
  101.7193   27.0605   -2.8958 O   0  0  0  0  0  0  0  0  0  0  0  0
  100.7857   26.7979   -2.9105 H   0  0  0  0  0  0  0  0  0  0  0  0
  102.4400   25.6052   -0.9334 O   0  0  0  0  0  0  0  0  0  0  0  0
  103.0779   26.1925    1.3128 N   0  0  0  0  0  0  0  0  0  0  0  0
  103.0384   25.0278    0.3992 P   0  0  0  0  0  0  0  0  0  0  0  0
  102.0082   24.0373    0.8901 O   0  0  0  0  0  0  0  0  0  0  0  0
  104.2864   24.2607    0.1266 O   0  0  0  0  0  0  0  0  0  0  0  0
  103.4584   25.9046    2.2144 H   0  0  0  0  0  0  0  0  0  0  0  0
  102.1334   26.5551    1.4425 H   0  0  0  0  0  0  0  0  0  0  0  0
  104.6405   23.9126    0.9599 H   0  0  0  0  0  0  0  0  0  0  0  0
 31 32  1  0  0  0
 32 33  2  0  0  0
 32 34  1  0  0  0
 32 30  1  0  0  0
 30 26  1  0  0  0
 26 27  2  0  0  0
 26 28  1  0  0  0
 26 25  1  0  0  0
 25 24  1  0  0  0
 24  1  1  0  0  0
  1  2  1  0  0  0
  1  3  1  0  0  0
  2  7  1  0  0  0
  3  4  1  0  0  0
  3  5  1  0  0  0
  5  6  1  0  0  0
  5  7  1  0  0  0
  7 10  1  0  0  0
 10 11  1  0  0  0
 10 20  1  0  0  0
 11 12  2  0  0  0
 12 13  1  0  0  0
 13 14  1  0  0  0
 13 20  2  0  0  0
 14 15  2  0  0  0
 14 16  1  0  0  0
 16 17  1  0  0  0
 17 18  1  0  0  0
 17 19  2  0  0  0
 19 20  1  0  0  0
 31 35  1  0  0  0
 31 36  1  0  0  0
 34 37  1  0  0  0
 28 29  1  0  0  0
  4  8  1  0  0  0
  6  9  1  0  0  0
 16 21  1  0  0  0
 18 22  1  0  0  0
 18 23  1  0  0  0
M  END
> <minimizedAffinity>
-8.38950

$$$$
1A4R_GNH_B_400


 37 39  0  0  0  0  0  0  0  0999 V2000
  102.6291   25.3542    0.0617 C   0  0  0  0  0  0  0  0  0  0  0  0
  103.4621   26.1344    0.9115 O   0  0  0  0  0  0  0  0  0  0  0  0
  102.3904   26.2574   -1.1454 C   0  0  0  0  0  0  0  0  0  0  0  0
  101.1007   26.8432   -1.0941 O   0  0  0  0  0  0  0  0  0  0  0  0
  103.5034   27.2849   -1.1464 C   0  0  0  0  0  0  0  0  0  0  0  0
  103.2834   28.4841   -1.8897 O   0  0  0  0  0  0  0  0  0  0  0  0
  103.7738   27.4407    0.3563 C   0  0  0  0  0  0  0  0  0  0  0  0
  101.0146   27.3646   -0.2806 H   0  0  0  0  0  0  0  0  0  0  0  0
  102.5101   28.9484   -1.5329 H   0  0  0  0  0  0  0  0  0  0  0  0
  105.1983   27.6502    0.8085 N   0  0  0  0  0  0  0  0  0  0  0  0
  106.0245   26.7877    1.5105 C   0  0  0  0  0  0  0  0  0  0  0  0
  107.2357   27.2211    1.7815 N   0  0  0  0  0  0  0  0  0  0  0  0
  107.2581   28.5086    1.2212 C   0  0  0  0  0  0  0  0  0  0  0  0
  108.3281   29.5376    1.1780 C   0  0  0  0  0  0  0  0  0  0  0  0
  109.4616   29.4530    1.6574 O   0  0  0  0  0  0  0  0  0  0  0  0
  107.9528   30.7573    0.4961 N   0  0  0  0  0  0  0  0  0  0  0  0
  106.6798   31.0018   -0.1094 C   0  0  0  0  0  0  0  0  0  0  0  0
  106.4773   32.1845   -0.7134 N   0  0  0  0  0  0  0  0  0  0  0  0
  105.6573   30.0508   -0.0834 N   0  0  0  0  0  0  0  0  0  0  0  0
  106.0101   28.8086    0.6031 C   0  0  0  0  0  0  0  0  0  0  0  0
  108.6254   31.4744    0.4449 H   0  0  0  0  0  0  0  0  0  0  0  0
  107.1964   32.8567   -0.7332 H   0  0  0  0  0  0  0  0  0  0  0  0
  105.6098   32.3791   -1.1363 H   0  0  0  0  0  0  0  0  0  0  0  0
  103.3541   23.9925   -0.1999 C   0  0  0  0  0  0  0  0  0  0  0  0
  103.0076   22.9720    0.7672 O   0  0  0  0  0  0  0  0  0  0  0  0
  101.5202   22.5813    1.1381 P   0  0  0  0  0  0  0  0  0  0  0  0
  101.2707   21.1337    0.9789 O   0  0  0  0  0  0  0  0  0  0  0  0
  101.1059   23.2263    2.4150 O   0  0  0  0  0  0  0  0  0  0  0  0
  100.1928   22.9740    2.6233 H   0  0  0  0  0  0  0  0  0  0  0  0
  100.8432   23.3544   -0.1154 O   0  0  0  0  0  0  0  0  0  0  0  0
   98.7773   23.8117   -1.2645 N   0  0  0  0  0  0  0  0  0  0  0  0
   99.9339   22.8880   -1.3082 P   0  0  0  0  0  0  0  0  0  0  0  0
  100.7509   23.1624   -2.5494 O   0  0  0  0  0  0  0  0  0  0  0  0
   99.7060   21.4166   -1.2521 O   0  0  0  0  0  0  0  0  0  0  0  0
   98.1270   23.5780   -2.0147 H   0  0  0  0  0  0  0  0  0  0  0  0
   99.1034   24.7708   -1.3836 H   0  0  0  0  0  0  0  0  0  0  0  0
   99.1435   21.1479   -1.9952 H   0  0  0  0  0  0  0  0  0  0  0  0
 31 32  1  0  0  0
 32 33  2  0  0  0
 32 34  1  0  0  0
 32 30  1  0  0  0
 30 26  1  0  0  0
 26 27  2  0  0  0
 26 28  1  0  0  0
 26 25  1  0  0  0
 25 24  1  0  0  0
 24  1  1  0  0  0
  1  2  1  0  0  0
  1  3  1  0  0  0
  2  7  1  0  0  0
  3  4  1  0  0  0
  3  5  1  0  0  0
  5  6  1  0  0  0
  5  7  1  0  0  0
  7 10  1  0  0  0
 10 11  1  0  0  0
 10 20  1  0  0  0
 11 12  2  0  0  0
 12 13  1  0  0  0
 13 14  1  0  0  0
 13 20  2  0  0  0
 14 15  2  0  0  0
 14 16  1  0  0  0
 16 17  1  0  0  0
 17 18  1  0  0  0
 17 19  2  0  0  0
 19 20  1  0  0  0
 31 35  1  0  0  0
 31 36  1  0  0  0
 34 37  1  0  0  0
 28 29  1  0  0  0
  4  8  1  0  0  0
  6  9  1  0  0  0
 16 21  1  0  0  0
 18 22  1  0  0  0
 18 23  1  0  0  0
M  END
> <minimizedAffinity>
-8.25243

$$$$
1A4R_GNH_B_400


 37 39  0  0  0  0  0  0  0  0999 V2000
  103.3520   28.1883   -0.6763 C   0  0  0  0  0  0  0  0  0  0  0  0
  104.2988   28.4691    0.3481 O   0  0  0  0  0  0  0  0  0  0  0  0
  104.1822   28.2089   -1.9570 C   0  0  0  0  0  0  0  0  0  0  0  0
  103.9875   29.4191   -2.6688 O   0  0  0  0  0  0  0  0  0  0  0  0
  105.6237   27.9949   -1.5441 C   0  0  0  0  0  0  0  0  0  0  0  0
  106.6340   28.3963   -2.4701 O   0  0  0  0  0  0  0  0  0  0  0  0
  105.6458   28.6623   -0.1622 C   0  0  0  0  0  0  0  0  0  0  0  0
  104.2427   30.1685   -2.1083 H   0  0  0  0  0  0  0  0  0  0  0  0
  106.5575   29.3483   -2.6396 H   0  0  0  0  0  0  0  0  0  0  0  0
  106.4918   28.0375    0.9202 N   0  0  0  0  0  0  0  0  0  0  0  0
  106.4042   26.7690    1.4702 C   0  0  0  0  0  0  0  0  0  0  0  0
  107.2732   26.4728    2.4111 N   0  0  0  0  0  0  0  0  0  0  0  0
  108.0374   27.6445    2.5347 C   0  0  0  0  0  0  0  0  0  0  0  0
  109.1811   27.9769    3.4218 C   0  0  0  0  0  0  0  0  0  0  0  0
  109.7023   27.2471    4.2690 O   0  0  0  0  0  0  0  0  0  0  0  0
  109.7033   29.3143    3.2429 N   0  0  0  0  0  0  0  0  0  0  0  0
  109.2061   30.2716    2.3031 C   0  0  0  0  0  0  0  0  0  0  0  0
  109.7971   31.4766    2.2467 N   0  0  0  0  0  0  0  0  0  0  0  0
  108.1325   29.9840    1.4572 N   0  0  0  0  0  0  0  0  0  0  0  0
  107.5838   28.6381    1.6201 C   0  0  0  0  0  0  0  0  0  0  0  0
  110.4592   29.5866    3.8118 H   0  0  0  0  0  0  0  0  0  0  0  0
  110.5540   31.6820    2.8418 H   0  0  0  0  0  0  0  0  0  0  0  0
  109.4733   32.1544    1.6102 H   0  0  0  0  0  0  0  0  0  0  0  0
  102.6376   26.8446   -0.3123 C   0  0  0  0  0  0  0  0  0  0  0  0
  101.3842   26.6619   -1.0140 O   0  0  0  0  0  0  0  0  0  0  0  0
  101.2389   25.8303   -2.3518 P   0  0  0  0  0  0  0  0  0  0  0  0
  100.7466   26.6606   -3.4704 O   0  0  0  0  0  0  0  0  0  0  0  0
  102.4440   24.9866   -2.5844 O   0  0  0  0  0  0  0  0  0  0  0  0
  102.3343   24.4861   -3.4080 H   0  0  0  0  0  0  0  0  0  0  0  0
  100.0138   24.9088   -1.8254 O   0  0  0  0  0  0  0  0  0  0  0  0
  100.1216   22.6199   -2.5647 N   0  0  0  0  0  0  0  0  0  0  0  0
   99.9158   23.4196   -1.3355 P   0  0  0  0  0  0  0  0  0  0  0  0
  101.0976   23.2365   -0.4117 O   0  0  0  0  0  0  0  0  0  0  0  0
   98.6870   23.2142   -0.5182 O   0  0  0  0  0  0  0  0  0  0  0  0
  100.0734   21.6269   -2.3363 H   0  0  0  0  0  0  0  0  0  0  0  0
  101.0372   22.8337   -2.9601 H   0  0  0  0  0  0  0  0  0  0  0  0
   98.6441   22.2905   -0.2253 H   0  0  0  0  0  0  0  0  0  0  0  0
 31 32  1  0  0  0
 32 33  2  0  0  0
 32 34  1  0  0  0
 32 30  1  0  0  0
 30 26  1  0  0  0
 26 27  2  0  0  0
 26 28  1  0  0  0
 26 25  1  0  0  0
 25 24  1  0  0  0
 24  1  1  0  0  0
  1  2  1  0  0  0
  1  3  1  0  0  0
  2  7  1  0  0  0
  3  4  1  0  0  0
  3  5  1  0  0  0
  5  6  1  0  0  0
  5  7  1  0  0  0
  7 10  1  0  0  0
 10 11  1  0  0  0
 10 20  1  0  0  0
 11 12  2  0  0  0
 12 13  1  0  0  0
 13 14  1  0  0  0
 13 20  2  0  0  0
 14 15  2  0  0  0
 14 16  1  0  0  0
 16 17  1  0  0  0
 17 18  1  0  0  0
 17 19  2  0  0  0
 19 20  1  0  0  0
 31 35  1  0  0  0
 31 36  1  0  0  0
 34 37  1  0  0  0
 28 29  1  0  0  0
  4  8  1  0  0  0
  6  9  1  0  0  0
 16 21  1  0  0  0
 18 22  1  0  0  0
 18 23  1  0  0  0
M  END
> <minimizedAffinity>
-8.22971

$$$$
1A4R_GNH_B_400


 37 39  0  0  0  0  0  0  0  0999 V2000
  105.3556   25.9092   -0.7179 C   0  0  0  0  0  0  0  0  0  0  0  0
  105.4592   27.0706   -1.5335 O   0  0  0  0  0  0  0  0  0  0  0  0
  106.0912   26.2950    0.5626 C   0  0  0  0  0  0  0  0  0  0  0  0
  107.3831   25.7129    0.6011 O   0  0  0  0  0  0  0  0  0  0  0  0
  106.1269   27.8087    0.6042 C   0  0  0  0  0  0  0  0  0  0  0  0
  107.1092   28.4153    1.4447 O   0  0  0  0  0  0  0  0  0  0  0  0
  106.1865   28.1520   -0.8905 C   0  0  0  0  0  0  0  0  0  0  0  0
  107.8954   26.0119   -0.1664 H   0  0  0  0  0  0  0  0  0  0  0  0
  107.9946   28.1488    1.1515 H   0  0  0  0  0  0  0  0  0  0  0  0
  105.4415   29.3721   -1.3742 N   0  0  0  0  0  0  0  0  0  0  0  0
  104.3431   29.4446   -2.2153 C   0  0  0  0  0  0  0  0  0  0  0  0
  103.8826   30.6468   -2.4817 N   0  0  0  0  0  0  0  0  0  0  0  0
  104.7413   31.4952   -1.7642 C   0  0  0  0  0  0  0  0  0  0  0  0
  104.7729   32.9746   -1.6376 C   0  0  0  0  0  0  0  0  0  0  0  0
  104.0108   33.7837   -2.1728 O   0  0  0  0  0  0  0  0  0  0  0  0
  105.8334   33.4763   -0.7908 N   0  0  0  0  0  0  0  0  0  0  0  0
  106.7905   32.6643   -0.1042 C   0  0  0  0  0  0  0  0  0  0  0  0
  107.7178   33.2734    0.6531 N   0  0  0  0  0  0  0  0  0  0  0  0
  106.7822   31.2713   -0.2060 N   0  0  0  0  0  0  0  0  0  0  0  0
  105.7207   30.7381   -1.0592 C   0  0  0  0  0  0  0  0  0  0  0  0
  105.9017   34.4520   -0.6784 H   0  0  0  0  0  0  0  0  0  0  0  0
  107.7259   34.2552    0.7266 H   0  0  0  0  0  0  0  0  0  0  0  0
  108.3892   32.7382    1.1347 H   0  0  0  0  0  0  0  0  0  0  0  0
  103.8382   25.5502   -0.5870 C   0  0  0  0  0  0  0  0  0  0  0  0
  103.0964   25.7732   -1.8104 O   0  0  0  0  0  0  0  0  0  0  0  0
  101.5229   25.9249   -1.8690 P   0  0  0  0  0  0  0  0  0  0  0  0
  101.0409   27.0364   -1.0231 O   0  0  0  0  0  0  0  0  0  0  0  0
  101.0360   25.8536   -3.2747 O   0  0  0  0  0  0  0  0  0  0  0  0
  100.0707   25.9486   -3.2878 H   0  0  0  0  0  0  0  0  0  0  0  0
  101.2074   24.5308   -1.1046 O   0  0  0  0  0  0  0  0  0  0  0  0
   98.8653   24.0181   -1.3260 N   0  0  0  0  0  0  0  0  0  0  0  0
  100.1920   23.3615   -1.3668 P   0  0  0  0  0  0  0  0  0  0  0  0
  100.4838   22.9028   -2.7767 O   0  0  0  0  0  0  0  0  0  0  0  0
  100.4730   22.2085   -0.4658 O   0  0  0  0  0  0  0  0  0  0  0  0
   98.1368   23.3230   -1.4889 H   0  0  0  0  0  0  0  0  0  0  0  0
   98.8186   24.7355   -2.0496 H   0  0  0  0  0  0  0  0  0  0  0  0
   99.8370   21.4977   -0.6422 H   0  0  0  0  0  0  0  0  0  0  0  0
 31 32  1  0  0  0
 32 33  2  0  0  0
 32 34  1  0  0  0
 32 30  1  0  0  0
 30 26  1  0  0  0
 26 27  2  0  0  0
 26 28  1  0  0  0
 26 25  1  0  0  0
 25 24  1  0  0  0
 24  1  1  0  0  0
  1  2  1  0  0  0
  1  3  1  0  0  0
  2  7  1  0  0  0
  3  4  1  0  0  0
  3  5  1  0  0  0
  5  6  1  0  0  0
  5  7  1  0  0  0
  7 10  1  0  0  0
 10 11  1  0  0  0
 10 20  1  0  0  0
 11 12  2  0  0  0
 12 13  1  0  0  0
 13 14  1  0  0  0
 13 20  2  0  0  0
 14 15  2  0  0  0
 14 16  1  0  0  0
 16 17  1  0  0  0
 17 18  1  0  0  0
 17 19  2  0  0  0
 19 20  1  0  0  0
 31 35  1  0  0  0
 31 36  1  0  0  0
 34 37  1  0  0  0
 28 29  1  0  0  0
  4  8  1  0  0  0
  6  9  1  0  0  0
 16 21  1  0  0  0
 18 22  1  0  0  0
 18 23  1  0  0  0
M  END
> <minimizedAffinity>
-7.99880

$$$$
1A4R_GNH_B_400


 37 39  0  0  0  0  0  0  0  0999 V2000
  104.2273   28.8812   -1.0293 C   0  0  0  0  0  0  0  0  0  0  0  0
  103.0408   28.1010   -1.1199 O   0  0  0  0  0  0  0  0  0  0  0  0
  105.1813   28.0034   -0.2238 C   0  0  0  0  0  0  0  0  0  0  0  0
  105.2695   28.4485    1.1191 O   0  0  0  0  0  0  0  0  0  0  0  0
  104.6680   26.5830   -0.3399 C   0  0  0  0  0  0  0  0  0  0  0  0
  105.1054   25.6485    0.6473 O   0  0  0  0  0  0  0  0  0  0  0  0
  103.1551   26.8154   -0.4519 C   0  0  0  0  0  0  0  0  0  0  0  0
  104.3894   28.4243    1.5262 H   0  0  0  0  0  0  0  0  0  0  0  0
  104.8226   25.9493    1.5251 H   0  0  0  0  0  0  0  0  0  0  0  0
  102.3578   25.9103   -1.3589 N   0  0  0  0  0  0  0  0  0  0  0  0
  101.6124   26.2386   -2.4796 C   0  0  0  0  0  0  0  0  0  0  0  0
  101.0075   25.2478   -3.0966 N   0  0  0  0  0  0  0  0  0  0  0  0
  101.3580   24.1217   -2.3342 C   0  0  0  0  0  0  0  0  0  0  0  0
  101.0034   22.6878   -2.4881 C   0  0  0  0  0  0  0  0  0  0  0  0
  100.2898   22.1872   -3.3611 O   0  0  0  0  0  0  0  0  0  0  0  0
  101.5734   21.8226   -1.4782 N   0  0  0  0  0  0  0  0  0  0  0  0
  102.4182   22.2549   -0.4075 C   0  0  0  0  0  0  0  0  0  0  0  0
  102.8782   21.3329    0.4543 N   0  0  0  0  0  0  0  0  0  0  0  0
  102.7671   23.5970   -0.2408 N   0  0  0  0  0  0  0  0  0  0  0  0
  102.2011   24.4939   -1.2479 C   0  0  0  0  0  0  0  0  0  0  0  0
  101.3638   20.8622   -1.5319 H   0  0  0  0  0  0  0  0  0  0  0  0
  102.6338   20.3862    0.3392 H   0  0  0  0  0  0  0  0  0  0  0  0
  103.4597   21.6038    1.2011 H   0  0  0  0  0  0  0  0  0  0  0  0
  104.6635   29.2593   -2.4836 C   0  0  0  0  0  0  0  0  0  0  0  0
  104.7460   30.6892   -2.6960 O   0  0  0  0  0  0  0  0  0  0  0  0
  105.9914   31.4099   -3.3532 P   0  0  0  0  0  0  0  0  0  0  0  0
  107.2577   31.0525   -2.6808 O   0  0  0  0  0  0  0  0  0  0  0  0
  105.9364   31.3129   -4.8384 O   0  0  0  0  0  0  0  0  0  0  0  0
  106.7077   31.7603   -5.2204 H   0  0  0  0  0  0  0  0  0  0  0  0
  105.5694   32.9022   -2.8819 O   0  0  0  0  0  0  0  0  0  0  0  0
  103.4554   33.0220   -1.7357 N   0  0  0  0  0  0  0  0  0  0  0  0
  104.8604   33.4697   -1.6003 P   0  0  0  0  0  0  0  0  0  0  0  0
  105.5106   32.7455   -0.4444 O   0  0  0  0  0  0  0  0  0  0  0  0
  105.1603   34.9194   -1.4314 O   0  0  0  0  0  0  0  0  0  0  0  0
  102.9152   33.3508   -0.9354 H   0  0  0  0  0  0  0  0  0  0  0  0
  103.4251   32.0031   -1.7708 H   0  0  0  0  0  0  0  0  0  0  0  0
  104.7147   35.2512   -0.6363 H   0  0  0  0  0  0  0  0  0  0  0  0
 31 32  1  0  0  0
 32 33  2  0  0  0
 32 34  1  0  0  0
 32 30  1  0  0  0
 30 26  1  0  0  0
 26 27  2  0  0  0
 26 28  1  0  0  0
 26 25  1  0  0  0
 25 24  1  0  0  0
 24  1  1  0  0  0
  1  2  1  0  0  0
  1  3  1  0  0  0
  2  7  1  0  0  0
  3  4  1  0  0  0
  3  5  1  0  0  0
  5  6  1  0  0  0
  5  7  1  0  0  0
  7 10  1  0  0  0
 10 11  1  0  0  0
 10 20  1  0  0  0
 11 12  2  0  0  0
 12 13  1  0  0  0
 13 14  1  0  0  0
 13 20  2  0  0  0
 14 15  2  0  0  0
 14 16  1  0  0  0
 16 17  1  0  0  0
 17 18  1  0  0  0
 17 19  2  0  0  0
 19 20  1  0  0  0
 31 35  1  0  0  0
 31 36  1  0  0  0
 34 37  1  0  0  0
 28 29  1  0  0  0
  4  8  1  0  0  0
  6  9  1  0  0  0
 16 21  1  0  0  0
 18 22  1  0  0  0
 18 23  1  0  0  0
M  END
> <minimizedAffinity>
-7.67814

$$$$
1A4R_GNH_B_400


 37 39  0  0  0  0  0  0  0  0999 V2000
  105.0049   27.0932    0.2221 C   0  0  0  0  0  0  0  0  0  0  0  0
  105.1149   28.0912   -0.7862 O   0  0  0  0  0  0  0  0  0  0  0  0
  106.0055   27.5365    1.2859 C   0  0  0  0  0  0  0  0  0  0  0  0
  107.1923   26.7642    1.2200 O   0  0  0  0  0  0  0  0  0  0  0  0
  106.2524   29.0141    1.0618 C   0  0  0  0  0  0  0  0  0  0  0  0
  107.4434   29.5688    1.6211 O   0  0  0  0  0  0  0  0  0  0  0  0
  106.0860   29.1220   -0.4602 C   0  0  0  0  0  0  0  0  0  0  0  0
  107.5927   26.8611    0.3418 H   0  0  0  0  0  0  0  0  0  0  0  0
  108.2168   29.1223    1.2424 H   0  0  0  0  0  0  0  0  0  0  0  0
  105.4375   30.3633   -1.0224 N   0  0  0  0  0  0  0  0  0  0  0  0
  104.3167   30.4705   -1.8296 C   0  0  0  0  0  0  0  0  0  0  0  0
  103.9585   31.6849   -2.1834 N   0  0  0  0  0  0  0  0  0  0  0  0
  104.9207   32.5040   -1.5706 C   0  0  0  0  0  0  0  0  0  0  0  0
  105.0938   33.9790   -1.5732 C   0  0  0  0  0  0  0  0  0  0  0  0
  104.3882   34.8100   -2.1507 O   0  0  0  0  0  0  0  0  0  0  0  0
  106.2300   34.4456   -0.8085 N   0  0  0  0  0  0  0  0  0  0  0  0
  107.1355   33.6056   -0.0866 C   0  0  0  0  0  0  0  0  0  0  0  0
  108.1454   34.1841    0.5842 N   0  0  0  0  0  0  0  0  0  0  0  0
  106.9945   32.2162   -0.0674 N   0  0  0  0  0  0  0  0  0  0  0  0
  105.8542   31.7178   -0.8358 C   0  0  0  0  0  0  0  0  0  0  0  0
  106.3926   35.4162   -0.7831 H   0  0  0  0  0  0  0  0  0  0  0  0
  108.2471   35.1632    0.5724 H   0  0  0  0  0  0  0  0  0  0  0  0
  108.7838   33.6289    1.0876 H   0  0  0  0  0  0  0  0  0  0  0  0
  103.5019   27.0083    0.6493 C   0  0  0  0  0  0  0  0  0  0  0  0
  103.0839   25.6630    0.9840 O   0  0  0  0  0  0  0  0  0  0  0  0
  102.8023   24.5370   -0.0909 P   0  0  0  0  0  0  0  0  0  0  0  0
  104.0240   23.7806   -0.4350 O   0  0  0  0  0  0  0  0  0  0  0  0
  101.5772   23.7657    0.2588 O   0  0  0  0  0  0  0  0  0  0  0  0
  101.4232   23.0819   -0.4118 H   0  0  0  0  0  0  0  0  0  0  0  0
  102.4809   25.5625   -1.3043 O   0  0  0  0  0  0  0  0  0  0  0  0
  101.2789   24.3896   -3.0296 N   0  0  0  0  0  0  0  0  0  0  0  0
  101.2924   25.6910   -2.3231 P   0  0  0  0  0  0  0  0  0  0  0  0
  100.0554   25.8102   -1.4635 O   0  0  0  0  0  0  0  0  0  0  0  0
  101.4039   26.9544   -3.1052 O   0  0  0  0  0  0  0  0  0  0  0  0
  100.5276   24.3850   -3.7195 H   0  0  0  0  0  0  0  0  0  0  0  0
  101.1268   23.6387   -2.3562 H   0  0  0  0  0  0  0  0  0  0  0  0
  100.6626   27.0157   -3.7278 H   0  0  0  0  0  0  0  0  0  0  0  0
 31 32  1  0  0  0
 32 33  2  0  0  0
 32 34  1  0  0  0
 32 30  1  0  0  0
 30 26  1  0  0  0
 26 27  2  0  0  0
 26 28  1  0  0  0
 26 25  1  0  0  0
 25 24  1  0  0  0
 24  1  1  0  0  0
  1  2  1  0  0  0
  1  3  1  0  0  0
  2  7  1  0  0  0
  3  4  1  0  0  0
  3  5  1  0  0  0
  5  6  1  0  0  0
  5  7  1  0  0  0
  7 10  1  0  0  0
 10 11  1  0  0  0
 10 20  1  0  0  0
 11 12  2  0  0  0
 12 13  1  0  0  0
 13 14  1  0  0  0
 13 20  2  0  0  0
 14 15  2  0  0  0
 14 16  1  0  0  0
 16 17  1  0  0  0
 17 18  1  0  0  0
 17 19  2  0  0  0
 19 20  1  0  0  0
 31 35  1  0  0  0
 31 36  1  0  0  0
 34 37  1  0  0  0
 28 29  1  0  0  0
  4  8  1  0  0  0
  6  9  1  0  0  0
 16 21  1  0  0  0
 18 22  1  0  0  0
 18 23  1  0  0  0
M  END
> <minimizedAffinity>
-7.58175

$$$$
1A4R_GNH_B_400


 37 39  0  0  0  0  0  0  0  0999 V2000
  103.3584   28.0377   -0.2337 C   0  0  0  0  0  0  0  0  0  0  0  0
  104.0035   26.8179    0.1137 O   0  0  0  0  0  0  0  0  0  0  0  0
  104.2525   28.6271   -1.3213 C   0  0  0  0  0  0  0  0  0  0  0  0
  105.0596   29.6715   -0.8043 O   0  0  0  0  0  0  0  0  0  0  0  0
  105.0653   27.4800   -1.8849 C   0  0  0  0  0  0  0  0  0  0  0  0
  106.2615   27.8127   -2.5904 O   0  0  0  0  0  0  0  0  0  0  0  0
  105.2162   26.5799   -0.6510 C   0  0  0  0  0  0  0  0  0  0  0  0
  105.6124   29.3273   -0.0854 H   0  0  0  0  0  0  0  0  0  0  0  0
  106.8664   28.2843   -1.9966 H   0  0  0  0  0  0  0  0  0  0  0  0
  105.1827   25.0841   -0.8485 N   0  0  0  0  0  0  0  0  0  0  0  0
  104.4214   24.1353   -0.1856 C   0  0  0  0  0  0  0  0  0  0  0  0
  104.5856   22.8843   -0.5549 N   0  0  0  0  0  0  0  0  0  0  0  0
  105.5556   22.9641   -1.5673 C   0  0  0  0  0  0  0  0  0  0  0  0
  106.1900   21.9098   -2.3988 C   0  0  0  0  0  0  0  0  0  0  0  0
  105.9763   20.6957   -2.3514 O   0  0  0  0  0  0  0  0  0  0  0  0
  107.1623   22.4062   -3.3482 N   0  0  0  0  0  0  0  0  0  0  0  0
  107.5149   23.7821   -3.5200 C   0  0  0  0  0  0  0  0  0  0  0  0
  108.4346   24.0940   -4.4481 N   0  0  0  0  0  0  0  0  0  0  0  0
  106.9328   24.7927   -2.7515 N   0  0  0  0  0  0  0  0  0  0  0  0
  105.9475   24.3169   -1.7811 C   0  0  0  0  0  0  0  0  0  0  0  0
  107.6165   21.7462   -3.9204 H   0  0  0  0  0  0  0  0  0  0  0  0
  108.8465   23.3836   -4.9912 H   0  0  0  0  0  0  0  0  0  0  0  0
  108.6967   25.0330   -4.5853 H   0  0  0  0  0  0  0  0  0  0  0  0
  101.8822   27.7024   -0.6295 C   0  0  0  0  0  0  0  0  0  0  0  0
  101.6575   26.2858   -0.8282 O   0  0  0  0  0  0  0  0  0  0  0  0
  101.3455   25.6342   -2.2356 P   0  0  0  0  0  0  0  0  0  0  0  0
  100.5974   26.5528   -3.1185 O   0  0  0  0  0  0  0  0  0  0  0  0
  102.5546   24.9627   -2.7880 O   0  0  0  0  0  0  0  0  0  0  0  0
  102.3417   24.5708   -3.6493 H   0  0  0  0  0  0  0  0  0  0  0  0
  100.3115   24.5248   -1.6633 O   0  0  0  0  0  0  0  0  0  0  0  0
  101.5653   22.4795   -1.8676 N   0  0  0  0  0  0  0  0  0  0  0  0
  100.4974   23.0928   -1.0453 P   0  0  0  0  0  0  0  0  0  0  0  0
  101.0162   23.3377    0.3527 O   0  0  0  0  0  0  0  0  0  0  0  0
   99.1833   22.4039   -0.9087 O   0  0  0  0  0  0  0  0  0  0  0  0
  101.7531   21.5349   -1.5316 H   0  0  0  0  0  0  0  0  0  0  0  0
  102.4141   23.0407   -1.7963 H   0  0  0  0  0  0  0  0  0  0  0  0
   99.3183   21.5228   -0.5261 H   0  0  0  0  0  0  0  0  0  0  0  0
 31 32  1  0  0  0
 32 33  2  0  0  0
 32 34  1  0  0  0
 32 30  1  0  0  0
 30 26  1  0  0  0
 26 27  2  0  0  0
 26 28  1  0  0  0
 26 25  1  0  0  0
 25 24  1  0  0  0
 24  1  1  0  0  0
  1  2  1  0  0  0
  1  3  1  0  0  0
  2  7  1  0  0  0
  3  4  1  0  0  0
  3  5  1  0  0  0
  5  6  1  0  0  0
  5  7  1  0  0  0
  7 10  1  0  0  0
 10 11  1  0  0  0
 10 20  1  0  0  0
 11 12  2  0  0  0
 12 13  1  0  0  0
 13 14  1  0  0  0
 13 20  2  0  0  0
 14 15  2  0  0  0
 14 16  1  0  0  0
 16 17  1  0  0  0
 17 18  1  0  0  0
 17 19  2  0  0  0
 19 20  1  0  0  0
 31 35  1  0  0  0
 31 36  1  0  0  0
 34 37  1  0  0  0
 28 29  1  0  0  0
  4  8  1  0  0  0
  6  9  1  0  0  0
 16 21  1  0  0  0
 18 22  1  0  0  0
 18 23  1  0  0  0
M  END
> <minimizedAffinity>
-7.36197

$$$$
1A4R_GNH_B_400


 37 39  0  0  0  0  0  0  0  0999 V2000
  104.6664   29.4892   -1.2996 C   0  0  0  0  0  0  0  0  0  0  0  0
  105.2860   29.7134   -0.0385 O   0  0  0  0  0  0  0  0  0  0  0  0
  105.4122   30.4271   -2.2451 C   0  0  0  0  0  0  0  0  0  0  0  0
  104.6412   31.5828   -2.5266 O   0  0  0  0  0  0  0  0  0  0  0  0
  106.7355   30.7501   -1.5827 C   0  0  0  0  0  0  0  0  0  0  0  0
  107.4218   31.9191   -2.0319 O   0  0  0  0  0  0  0  0  0  0  0  0
  106.3516   30.6998   -0.0975 C   0  0  0  0  0  0  0  0  0  0  0  0
  104.4448   32.0498   -1.6994 H   0  0  0  0  0  0  0  0  0  0  0  0
  106.8653   32.6990   -1.8803 H   0  0  0  0  0  0  0  0  0  0  0  0
  107.3567   30.1455    0.8824 N   0  0  0  0  0  0  0  0  0  0  0  0
  107.9140   28.8783    0.9347 C   0  0  0  0  0  0  0  0  0  0  0  0
  108.7750   28.6520    1.9020 N   0  0  0  0  0  0  0  0  0  0  0  0
  108.8213   29.8729    2.5944 C   0  0  0  0  0  0  0  0  0  0  0  0
  109.5958   30.2896    3.7910 C   0  0  0  0  0  0  0  0  0  0  0  0
  110.3858   29.6018    4.4427 O   0  0  0  0  0  0  0  0  0  0  0  0
  109.3610   31.6560    4.2050 N   0  0  0  0  0  0  0  0  0  0  0  0
  108.4780   32.5724    3.5515 C   0  0  0  0  0  0  0  0  0  0  0  0
  108.3657   33.8151    4.0491 N   0  0  0  0  0  0  0  0  0  0  0  0
  107.7389   32.2059    2.4244 N   0  0  0  0  0  0  0  0  0  0  0  0
  107.9560   30.8275    1.9865 C   0  0  0  0  0  0  0  0  0  0  0  0
  109.8465   31.9801    4.9978 H   0  0  0  0  0  0  0  0  0  0  0  0
  108.8854   34.0761    4.8434 H   0  0  0  0  0  0  0  0  0  0  0  0
  107.7636   34.4649    3.6195 H   0  0  0  0  0  0  0  0  0  0  0  0
  104.7466   27.9570   -1.6065 C   0  0  0  0  0  0  0  0  0  0  0  0
  103.4494   27.3138   -1.6196 O   0  0  0  0  0  0  0  0  0  0  0  0
  102.4744   27.2760   -0.3743 P   0  0  0  0  0  0  0  0  0  0  0  0
  103.2020   27.0602    0.8934 O   0  0  0  0  0  0  0  0  0  0  0  0
  101.4930   28.3946   -0.4361 O   0  0  0  0  0  0  0  0  0  0  0  0
  100.9062   28.3528    0.3352 H   0  0  0  0  0  0  0  0  0  0  0  0
  101.7524   25.8853   -0.7890 O   0  0  0  0  0  0  0  0  0  0  0  0
  100.9640   26.6028   -2.9479 N   0  0  0  0  0  0  0  0  0  0  0  0
  100.9949   25.4046   -2.0783 P   0  0  0  0  0  0  0  0  0  0  0  0
  101.8977   24.3599   -2.6921 O   0  0  0  0  0  0  0  0  0  0  0  0
   99.7207   24.7222   -1.7163 O   0  0  0  0  0  0  0  0  0  0  0  0
  100.4837   26.3783   -3.8193 H   0  0  0  0  0  0  0  0  0  0  0  0
  101.9184   26.8992   -3.1524 H   0  0  0  0  0  0  0  0  0  0  0  0
   99.2680   24.4331   -2.5240 H   0  0  0  0  0  0  0  0  0  0  0  0
 31 32  1  0  0  0
 32 33  2  0  0  0
 32 34  1  0  0  0
 32 30  1  0  0  0
 30 26  1  0  0  0
 26 27  2  0  0  0
 26 28  1  0  0  0
 26 25  1  0  0  0
 25 24  1  0  0  0
 24  1  1  0  0  0
  1  2  1  0  0  0
  1  3  1  0  0  0
  2  7  1  0  0  0
  3  4  1  0  0  0
  3  5  1  0  0  0
  5  6  1  0  0  0
  5  7  1  0  0  0
  7 10  1  0  0  0
 10 11  1  0  0  0
 10 20  1  0  0  0
 11 12  2  0  0  0
 12 13  1  0  0  0
 13 14  1  0  0  0
 13 20  2  0  0  0
 14 15  2  0  0  0
 14 16  1  0  0  0
 16 17  1  0  0  0
 17 18  1  0  0  0
 17 19  2  0  0  0
 19 20  1  0  0  0
 31 35  1  0  0  0
 31 36  1  0  0  0
 34 37  1  0  0  0
 28 29  1  0  0  0
  4  8  1  0  0  0
  6  9  1  0  0  0
 16 21  1  0  0  0
 18 22  1  0  0  0
 18 23  1  0  0  0
M  END
> <minimizedAffinity>
-7.32480

$$$$
1A4R_GNH_B_400


 37 39  0  0  0  0  0  0  0  0999 V2000
  102.9927   25.8567    0.0264 C   0  0  0  0  0  0  0  0  0  0  0  0
  103.9065   26.8941    0.3634 O   0  0  0  0  0  0  0  0  0  0  0  0
  103.5611   25.2742   -1.2649 C   0  0  0  0  0  0  0  0  0  0  0  0
  102.8316   25.7298   -2.3916 O   0  0  0  0  0  0  0  0  0  0  0  0
  105.0231   25.6675   -1.3127 C   0  0  0  0  0  0  0  0  0  0  0  0
  105.6674   25.6300   -2.5865 O   0  0  0  0  0  0  0  0  0  0  0  0
  104.9971   27.0206   -0.5888 C   0  0  0  0  0  0  0  0  0  0  0  0
  102.8700   26.6982   -2.4317 H   0  0  0  0  0  0  0  0  0  0  0  0
  105.2206   26.2411   -3.1929 H   0  0  0  0  0  0  0  0  0  0  0  0
  106.1616   27.3772    0.3025 N   0  0  0  0  0  0  0  0  0  0  0  0
  106.3244   28.4826    1.1215 C   0  0  0  0  0  0  0  0  0  0  0  0
  107.4477   28.5531    1.8008 N   0  0  0  0  0  0  0  0  0  0  0  0
  108.1377   27.3912    1.4183 C   0  0  0  0  0  0  0  0  0  0  0  0
  109.4691   26.8686    1.8178 C   0  0  0  0  0  0  0  0  0  0  0  0
  110.2678   27.3878    2.6016 O   0  0  0  0  0  0  0  0  0  0  0  0
  109.8292   25.6161    1.1892 N   0  0  0  0  0  0  0  0  0  0  0  0
  109.0101   24.8961    0.2633 C   0  0  0  0  0  0  0  0  0  0  0  0
  109.4769   23.7398   -0.2364 N   0  0  0  0  0  0  0  0  0  0  0  0
  107.7542   25.3653   -0.1282 N   0  0  0  0  0  0  0  0  0  0  0  0
  107.3670   26.6324    0.4911 C   0  0  0  0  0  0  0  0  0  0  0  0
  110.7057   25.2295    1.4162 H   0  0  0  0  0  0  0  0  0  0  0  0
  110.3618   23.4067    0.0379 H   0  0  0  0  0  0  0  0  0  0  0  0
  108.9341   23.2255   -0.8768 H   0  0  0  0  0  0  0  0  0  0  0  0
  102.8868   24.8945    1.2557 C   0  0  0  0  0  0  0  0  0  0  0  0
  101.8312   23.9130    1.1168 O   0  0  0  0  0  0  0  0  0  0  0  0
  102.0740   22.4212    0.6499 P   0  0  0  0  0  0  0  0  0  0  0  0
  103.5117   22.1109    0.5092 O   0  0  0  0  0  0  0  0  0  0  0  0
  101.2279   21.4773    1.4318 O   0  0  0  0  0  0  0  0  0  0  0  0
  101.3920   20.5701    1.1301 H   0  0  0  0  0  0  0  0  0  0  0  0
  101.4501   22.6227   -0.8325 O   0  0  0  0  0  0  0  0  0  0  0  0
   99.1356   22.8273   -0.2012 N   0  0  0  0  0  0  0  0  0  0  0  0
  100.0325   23.0477   -1.3587 P   0  0  0  0  0  0  0  0  0  0  0  0
  100.1480   24.5295   -1.6313 O   0  0  0  0  0  0  0  0  0  0  0  0
   99.7343   22.3864   -2.6602 O   0  0  0  0  0  0  0  0  0  0  0  0
   98.1815   23.0811   -0.4571 H   0  0  0  0  0  0  0  0  0  0  0  0
   99.4427   23.4046    0.5817 H   0  0  0  0  0  0  0  0  0  0  0  0
   98.8564   22.6606   -2.9685 H   0  0  0  0  0  0  0  0  0  0  0  0
 31 32  1  0  0  0
 32 33  2  0  0  0
 32 34  1  0  0  0
 32 30  1  0  0  0
 30 26  1  0  0  0
 26 27  2  0  0  0
 26 28  1  0  0  0
 26 25  1  0  0  0
 25 24  1  0  0  0
 24  1  1  0  0  0
  1  2  1  0  0  0
  1  3  1  0  0  0
  2  7  1  0  0  0
  3  4  1  0  0  0
  3  5  1  0  0  0
  5  6  1  0  0  0
  5  7  1  0  0  0
  7 10  1  0  0  0
 10 11  1  0  0  0
 10 20  1  0  0  0
 11 12  2  0  0  0
 12 13  1  0  0  0
 13 14  1  0  0  0
 13 20  2  0  0  0
 14 15  2  0  0  0
 14 16  1  0  0  0
 16 17  1  0  0  0
 17 18  1  0  0  0
 17 19  2  0  0  0
 19 20  1  0  0  0
 31 35  1  0  0  0
 31 36  1  0  0  0
 34 37  1  0  0  0
 28 29  1  0  0  0
  4  8  1  0  0  0
  6  9  1  0  0  0
 16 21  1  0  0  0
 18 22  1  0  0  0
 18 23  1  0  0  0
M  END
> <minimizedAffinity>
-7.27457

$$$$
