1AID_THK_B_201


 30 33  0  0  0  0  0  0  0  0999 V2000
   62.2215   38.4785   -0.0331 N   0  0  0  0  0  0  0  0  0  0  0  0
   61.3327   39.3210   -0.8571 C   0  0  0  0  0  0  0  0  0  0  0  0
   61.3194   38.8797   -2.3259 C   0  0  0  0  0  0  0  0  0  0  0  0
   62.7361   38.7327   -2.9136 C   0  0  0  0  0  0  0  0  0  0  0  0
   63.4008   39.9883   -2.8095 O   0  0  0  0  0  0  0  0  0  0  0  0
   63.5091   37.7342   -2.0349 C   0  0  0  0  0  0  0  0  0  0  0  0
   63.5665   38.2216   -0.5843 C   0  0  0  0  0  0  0  0  0  0  0  0
   63.4517   40.2509   -1.8771 H   0  0  0  0  0  0  0  0  0  0  0  0
   62.7055   38.4241   -4.3103 C   0  0  0  0  0  0  0  0  0  0  0  0
   61.4657   38.3275   -4.9711 C   0  0  0  0  0  0  0  0  0  0  0  0
   61.3840   37.9369   -6.3093 C   0  0  0  0  0  0  0  0  0  0  0  0
   62.5484   37.6523   -7.0235 C   0  0  0  0  0  0  0  0  0  0  0  0
   62.4211   37.0741   -8.6684 Cl  0  0  0  0  0  0  0  0  0  0  0  0
   63.7965   37.7874   -6.3927 C   0  0  0  0  0  0  0  0  0  0  0  0
   63.8785   38.1852   -5.0484 C   0  0  0  0  0  0  0  0  0  0  0  0
   62.3920   39.0235    1.3298 C   0  0  0  0  0  0  0  0  0  0  0  0
   62.0551   38.0033    2.4231 C   0  0  0  0  0  0  0  0  0  0  0  0
   63.1864   38.0299    3.4647 C   0  0  0  0  0  0  0  0  0  0  0  0
   62.6852   38.3835    4.8795 C   0  0  0  0  0  0  0  0  0  0  0  0
   63.5216   37.2877    6.0679 S   0  0  0  0  0  0  0  0  0  0  0  0
   62.0745   36.8611    7.0834 C   0  0  0  0  0  0  0  0  0  0  0  0
   60.7266   37.2804    6.4904 C   0  0  0  0  0  0  0  0  0  0  0  0
   60.8757   38.0845    4.8821 S   0  0  0  0  0  0  0  0  0  0  0  0
   62.9312   39.7607    5.1667 C   0  0  0  0  0  0  0  0  0  0  0  0
   61.8728   40.6850    5.1360 C   0  0  0  0  0  0  0  0  0  0  0  0
   62.1024   42.0557    5.2884 C   0  0  0  0  0  0  0  0  0  0  0  0
   63.4020   42.5218    5.4865 C   0  0  0  0  0  0  0  0  0  0  0  0
   63.6474   43.8623    5.5738 F   0  0  0  0  0  0  0  0  0  0  0  0
   64.4552   41.6064    5.5641 C   0  0  0  0  0  0  0  0  0  0  0  0
   64.2278   40.2333    5.4166 C   0  0  0  0  0  0  0  0  0  0  0  0
  1  2  1  0  0  0
  1  7  1  0  0  0
  1 16  1  0  0  0
  2  3  1  0  0  0
  3  4  1  0  0  0
  4  5  1  0  0  0
  4  6  1  0  0  0
  4  9  1  0  0  0
  6  7  1  0  0  0
 16 17  1  0  0  0
 17 18  1  0  0  0
 18 19  1  0  0  0
 19 24  1  0  0  0
 19 20  1  0  0  0
 19 23  1  0  0  0
 24 25  2  0  0  0
 24 30  1  0  0  0
 25 26  1  0  0  0
 26 27  2  0  0  0
 27 28  1  0  0  0
 27 29  1  0  0  0
 29 30  2  0  0  0
  9 10  2  0  0  0
  9 15  1  0  0  0
 10 11  1  0  0  0
 11 12  2  0  0  0
 12 13  1  0  0  0
 12 14  1  0  0  0
 14 15  2  0  0  0
 20 21  1  0  0  0
 21 22  1  0  0  0
 22 23  1  0  0  0
  5  8  1  0  0  0
M  END
> <minimizedAffinity>
-8.03646

$$$$
1AID_THK_B_201


 30 33  0  0  0  0  0  0  0  0999 V2000
   61.8365   38.8768   -0.7768 N   0  0  0  0  0  0  0  0  0  0  0  0
   60.9571   39.6412   -1.6830 C   0  0  0  0  0  0  0  0  0  0  0  0
   61.0243   39.1220   -3.1246 C   0  0  0  0  0  0  0  0  0  0  0  0
   62.4700   38.9956   -3.6423 C   0  0  0  0  0  0  0  0  0  0  0  0
   63.0862   40.2784   -3.5790 O   0  0  0  0  0  0  0  0  0  0  0  0
   63.2366   38.0743   -2.6780 C   0  0  0  0  0  0  0  0  0  0  0  0
   63.2127   38.6402   -1.2552 C   0  0  0  0  0  0  0  0  0  0  0  0
   63.0864   40.5921   -2.6611 H   0  0  0  0  0  0  0  0  0  0  0  0
   62.5122   38.6122   -5.0201 C   0  0  0  0  0  0  0  0  0  0  0  0
   61.3471   38.1178   -5.6373 C   0  0  0  0  0  0  0  0  0  0  0  0
   61.3656   37.6443   -6.9509 C   0  0  0  0  0  0  0  0  0  0  0  0
   62.5519   37.6740   -7.6846 C   0  0  0  0  0  0  0  0  0  0  0  0
   62.5780   36.9905   -9.2935 Cl  0  0  0  0  0  0  0  0  0  0  0  0
   63.7133   38.2058   -7.0995 C   0  0  0  0  0  0  0  0  0  0  0  0
   63.6931   38.6866   -5.7802 C   0  0  0  0  0  0  0  0  0  0  0  0
   61.9273   39.4996    0.5602 C   0  0  0  0  0  0  0  0  0  0  0  0
   62.6756   38.6249    1.5724 C   0  0  0  0  0  0  0  0  0  0  0  0
   61.7787   38.4548    2.8102 C   0  0  0  0  0  0  0  0  0  0  0  0
   62.3602   39.1363    4.0653 C   0  0  0  0  0  0  0  0  0  0  0  0
   61.4590   40.6947    4.3335 S   0  0  0  0  0  0  0  0  0  0  0  0
   62.8896   41.7573    4.6962 C   0  0  0  0  0  0  0  0  0  0  0  0
   64.2520   41.1263    4.3956 C   0  0  0  0  0  0  0  0  0  0  0  0
   64.1297   39.4618    3.7100 S   0  0  0  0  0  0  0  0  0  0  0  0
   62.2628   38.2682    5.1952 C   0  0  0  0  0  0  0  0  0  0  0  0
   63.4263   37.7229    5.7648 C   0  0  0  0  0  0  0  0  0  0  0  0
   63.3561   36.7737    6.7889 C   0  0  0  0  0  0  0  0  0  0  0  0
   62.1120   36.3634    7.2680 C   0  0  0  0  0  0  0  0  0  0  0  0
   62.0280   35.3915    8.2236 F   0  0  0  0  0  0  0  0  0  0  0  0
   60.9508   36.9337    6.7393 C   0  0  0  0  0  0  0  0  0  0  0  0
   61.0181   37.8875    5.7173 C   0  0  0  0  0  0  0  0  0  0  0  0
  1  2  1  0  0  0
  1  7  1  0  0  0
  1 16  1  0  0  0
  2  3  1  0  0  0
  3  4  1  0  0  0
  4  5  1  0  0  0
  4  6  1  0  0  0
  4  9  1  0  0  0
  6  7  1  0  0  0
 16 17  1  0  0  0
 17 18  1  0  0  0
 18 19  1  0  0  0
 19 24  1  0  0  0
 19 20  1  0  0  0
 19 23  1  0  0  0
 24 25  2  0  0  0
 24 30  1  0  0  0
 25 26  1  0  0  0
 26 27  2  0  0  0
 27 28  1  0  0  0
 27 29  1  0  0  0
 29 30  2  0  0  0
  9 10  2  0  0  0
  9 15  1  0  0  0
 10 11  1  0  0  0
 11 12  2  0  0  0
 12 13  1  0  0  0
 12 14  1  0  0  0
 14 15  2  0  0  0
 20 21  1  0  0  0
 21 22  1  0  0  0
 22 23  1  0  0  0
  5  8  1  0  0  0
M  END
> <minimizedAffinity>
-7.99992

$$$$
1AID_THK_B_201


 30 33  0  0  0  0  0  0  0  0999 V2000
   66.1204   41.4038    1.2835 N   0  0  0  0  0  0  0  0  0  0  0  0
   65.8694   42.1179    0.0163 C   0  0  0  0  0  0  0  0  0  0  0  0
   66.2606   41.2778   -1.2057 C   0  0  0  0  0  0  0  0  0  0  0  0
   67.6880   40.7075   -1.1006 C   0  0  0  0  0  0  0  0  0  0  0  0
   68.6000   41.7940   -0.9699 O   0  0  0  0  0  0  0  0  0  0  0  0
   67.7720   39.8842    0.1962 C   0  0  0  0  0  0  0  0  0  0  0  0
   67.4397   40.7542    1.4118 C   0  0  0  0  0  0  0  0  0  0  0  0
   68.3843   42.3030   -0.1729 H   0  0  0  0  0  0  0  0  0  0  0  0
   68.0760   40.0161   -2.2917 C   0  0  0  0  0  0  0  0  0  0  0  0
   67.5471   40.4229   -3.5318 C   0  0  0  0  0  0  0  0  0  0  0  0
   67.8240   39.7192   -4.7058 C   0  0  0  0  0  0  0  0  0  0  0  0
   68.6557   38.5997   -4.6664 C   0  0  0  0  0  0  0  0  0  0  0  0
   68.9148   37.6767   -6.1284 Cl  0  0  0  0  0  0  0  0  0  0  0  0
   69.2283   38.2067   -3.4450 C   0  0  0  0  0  0  0  0  0  0  0  0
   68.9537   38.9176   -2.2654 C   0  0  0  0  0  0  0  0  0  0  0  0
   65.9366   42.2815    2.4580 C   0  0  0  0  0  0  0  0  0  0  0  0
   65.5534   41.5063    3.7237 C   0  0  0  0  0  0  0  0  0  0  0  0
   64.1760   40.8631    3.4899 C   0  0  0  0  0  0  0  0  0  0  0  0
   64.2120   39.3249    3.5916 C   0  0  0  0  0  0  0  0  0  0  0  0
   65.8243   38.8397    4.2826 S   0  0  0  0  0  0  0  0  0  0  0  0
   66.1851   37.4655    3.1472 C   0  0  0  0  0  0  0  0  0  0  0  0
   65.2562   37.3734    1.9335 C   0  0  0  0  0  0  0  0  0  0  0  0
   64.0173   38.6842    1.8842 S   0  0  0  0  0  0  0  0  0  0  0  0
   63.1291   38.8521    4.3939 C   0  0  0  0  0  0  0  0  0  0  0  0
   63.3899   38.1611    5.5898 C   0  0  0  0  0  0  0  0  0  0  0  0
   62.3573   37.5781    6.3304 C   0  0  0  0  0  0  0  0  0  0  0  0
   61.0394   37.6896    5.8870 C   0  0  0  0  0  0  0  0  0  0  0  0
   60.0291   37.0717    6.5669 F   0  0  0  0  0  0  0  0  0  0  0  0
   60.7657   38.4137    4.7234 C   0  0  0  0  0  0  0  0  0  0  0  0
   61.7968   39.0023    3.9825 C   0  0  0  0  0  0  0  0  0  0  0  0
  1  2  1  0  0  0
  1  7  1  0  0  0
  1 16  1  0  0  0
  2  3  1  0  0  0
  3  4  1  0  0  0
  4  5  1  0  0  0
  4  6  1  0  0  0
  4  9  1  0  0  0
  6  7  1  0  0  0
 16 17  1  0  0  0
 17 18  1  0  0  0
 18 19  1  0  0  0
 19 24  1  0  0  0
 19 20  1  0  0  0
 19 23  1  0  0  0
 24 25  2  0  0  0
 24 30  1  0  0  0
 25 26  1  0  0  0
 26 27  2  0  0  0
 27 28  1  0  0  0
 27 29  1  0  0  0
 29 30  2  0  0  0
  9 10  2  0  0  0
  9 15  1  0  0  0
 10 11  1  0  0  0
 11 12  2  0  0  0
 12 13  1  0  0  0
 12 14  1  0  0  0
 14 15  2  0  0  0
 20 21  1  0  0  0
 21 22  1  0  0  0
 22 23  1  0  0  0
  5  8  1  0  0  0
M  END
> <minimizedAffinity>
-7.92411

$$$$
1AID_THK_B_201


 30 33  0  0  0  0  0  0  0  0999 V2000
   64.7261   41.9181    3.5823 N   0  0  0  0  0  0  0  0  0  0  0  0
   64.1356   42.7157    2.4896 C   0  0  0  0  0  0  0  0  0  0  0  0
   64.6169   42.2486    1.1103 C   0  0  0  0  0  0  0  0  0  0  0  0
   66.1513   42.1391    1.0237 C   0  0  0  0  0  0  0  0  0  0  0  0
   66.7120   43.4180    1.3053 O   0  0  0  0  0  0  0  0  0  0  0  0
   66.6186   41.1827    2.1343 C   0  0  0  0  0  0  0  0  0  0  0  0
   66.1837   41.6970    3.5096 C   0  0  0  0  0  0  0  0  0  0  0  0
   66.4470   43.6984    2.1953 H   0  0  0  0  0  0  0  0  0  0  0  0
   66.5892   41.8054   -0.2969 C   0  0  0  0  0  0  0  0  0  0  0  0
   65.6993   41.9498   -1.3787 C   0  0  0  0  0  0  0  0  0  0  0  0
   66.0524   41.5480   -2.6686 C   0  0  0  0  0  0  0  0  0  0  0  0
   67.3167   41.0088   -2.9080 C   0  0  0  0  0  0  0  0  0  0  0  0
   67.7066   40.4246   -4.5089 Cl  0  0  0  0  0  0  0  0  0  0  0  0
   68.2333   40.8995   -1.8487 C   0  0  0  0  0  0  0  0  0  0  0  0
   67.8797   41.3083   -0.5526 C   0  0  0  0  0  0  0  0  0  0  0  0
   64.4252   42.4922    4.9102 C   0  0  0  0  0  0  0  0  0  0  0  0
   63.8140   41.4690    5.8742 C   0  0  0  0  0  0  0  0  0  0  0  0
   62.6798   40.7376    5.1366 C   0  0  0  0  0  0  0  0  0  0  0  0
   62.7895   39.2035    5.2472 C   0  0  0  0  0  0  0  0  0  0  0  0
   61.1095   38.5077    5.1701 S   0  0  0  0  0  0  0  0  0  0  0  0
   61.2689   37.3059    6.5256 C   0  0  0  0  0  0  0  0  0  0  0  0
   62.5266   37.4676    7.3839 C   0  0  0  0  0  0  0  0  0  0  0  0
   63.5648   38.8515    6.8716 S   0  0  0  0  0  0  0  0  0  0  0  0
   63.6240   38.6865    4.2098 C   0  0  0  0  0  0  0  0  0  0  0  0
   64.8836   38.1479    4.5240 C   0  0  0  0  0  0  0  0  0  0  0  0
   65.7729   37.7504    3.5210 C   0  0  0  0  0  0  0  0  0  0  0  0
   65.4062   37.8768    2.1811 C   0  0  0  0  0  0  0  0  0  0  0  0
   66.2891   37.5513    1.1915 F   0  0  0  0  0  0  0  0  0  0  0  0
   64.1381   38.3686    1.8601 C   0  0  0  0  0  0  0  0  0  0  0  0
   63.2440   38.7629    2.8620 C   0  0  0  0  0  0  0  0  0  0  0  0
  1  2  1  0  0  0
  1  7  1  0  0  0
  1 16  1  0  0  0
  2  3  1  0  0  0
  3  4  1  0  0  0
  4  5  1  0  0  0
  4  6  1  0  0  0
  4  9  1  0  0  0
  6  7  1  0  0  0
 16 17  1  0  0  0
 17 18  1  0  0  0
 18 19  1  0  0  0
 19 24  1  0  0  0
 19 20  1  0  0  0
 19 23  1  0  0  0
 24 25  2  0  0  0
 24 30  1  0  0  0
 25 26  1  0  0  0
 26 27  2  0  0  0
 27 28  1  0  0  0
 27 29  1  0  0  0
 29 30  2  0  0  0
  9 10  2  0  0  0
  9 15  1  0  0  0
 10 11  1  0  0  0
 11 12  2  0  0  0
 12 13  1  0  0  0
 12 14  1  0  0  0
 14 15  2  0  0  0
 20 21  1  0  0  0
 21 22  1  0  0  0
 22 23  1  0  0  0
  5  8  1  0  0  0
M  END
> <minimizedAffinity>
-7.91627

$$$$
1AID_THK_B_201


 30 33  0  0  0  0  0  0  0  0999 V2000
   66.4045   41.0484    1.3781 N   0  0  0  0  0  0  0  0  0  0  0  0
   65.9414   41.6906    0.1324 C   0  0  0  0  0  0  0  0  0  0  0  0
   66.3240   40.8784   -1.1111 C   0  0  0  0  0  0  0  0  0  0  0  0
   67.8184   40.5042   -1.1381 C   0  0  0  0  0  0  0  0  0  0  0  0
   68.5852   41.7045   -1.1104 O   0  0  0  0  0  0  0  0  0  0  0  0
   68.1340   39.7326    0.1548 C   0  0  0  0  0  0  0  0  0  0  0  0
   67.8049   40.5819    1.3858 C   0  0  0  0  0  0  0  0  0  0  0  0
   68.3797   42.2008   -0.3027 H   0  0  0  0  0  0  0  0  0  0  0  0
   68.1808   39.8399   -2.3524 C   0  0  0  0  0  0  0  0  0  0  0  0
   67.6475   40.2920   -3.5747 C   0  0  0  0  0  0  0  0  0  0  0  0
   67.8988   39.6170   -4.7711 C   0  0  0  0  0  0  0  0  0  0  0  0
   68.7089   38.4811   -4.7723 C   0  0  0  0  0  0  0  0  0  0  0  0
   68.9352   37.5955   -6.2626 Cl  0  0  0  0  0  0  0  0  0  0  0  0
   69.2860   38.0424   -3.5687 C   0  0  0  0  0  0  0  0  0  0  0  0
   69.0372   38.7244   -2.3666 C   0  0  0  0  0  0  0  0  0  0  0  0
   66.2169   41.9238    2.5537 C   0  0  0  0  0  0  0  0  0  0  0  0
   65.8241   41.1468    3.8153 C   0  0  0  0  0  0  0  0  0  0  0  0
   64.4860   40.4395    3.5421 C   0  0  0  0  0  0  0  0  0  0  0  0
   63.3447   40.9561    4.4413 C   0  0  0  0  0  0  0  0  0  0  0  0
   62.1573   41.8518    3.3924 S   0  0  0  0  0  0  0  0  0  0  0  0
   61.8980   43.2913    4.4731 C   0  0  0  0  0  0  0  0  0  0  0  0
   62.8823   43.4048    5.6404 C   0  0  0  0  0  0  0  0  0  0  0  0
   64.1141   42.0865    5.6634 S   0  0  0  0  0  0  0  0  0  0  0  0
   62.7251   39.8716    5.1340 C   0  0  0  0  0  0  0  0  0  0  0  0
   63.3736   39.2748    6.2289 C   0  0  0  0  0  0  0  0  0  0  0  0
   62.8524   38.1340    6.8466 C   0  0  0  0  0  0  0  0  0  0  0  0
   61.6608   37.5781    6.3810 C   0  0  0  0  0  0  0  0  0  0  0  0
   61.1743   36.4285    6.9345 F   0  0  0  0  0  0  0  0  0  0  0  0
   60.9852   38.1911    5.3223 C   0  0  0  0  0  0  0  0  0  0  0  0
   61.5021   39.3358    4.7049 C   0  0  0  0  0  0  0  0  0  0  0  0
  1  2  1  0  0  0
  1  7  1  0  0  0
  1 16  1  0  0  0
  2  3  1  0  0  0
  3  4  1  0  0  0
  4  5  1  0  0  0
  4  6  1  0  0  0
  4  9  1  0  0  0
  6  7  1  0  0  0
 16 17  1  0  0  0
 17 18  1  0  0  0
 18 19  1  0  0  0
 19 24  1  0  0  0
 19 20  1  0  0  0
 19 23  1  0  0  0
 24 25  2  0  0  0
 24 30  1  0  0  0
 25 26  1  0  0  0
 26 27  2  0  0  0
 27 28  1  0  0  0
 27 29  1  0  0  0
 29 30  2  0  0  0
  9 10  2  0  0  0
  9 15  1  0  0  0
 10 11  1  0  0  0
 11 12  2  0  0  0
 12 13  1  0  0  0
 12 14  1  0  0  0
 14 15  2  0  0  0
 20 21  1  0  0  0
 21 22  1  0  0  0
 22 23  1  0  0  0
  5  8  1  0  0  0
M  END
> <minimizedAffinity>
-7.82220

$$$$
1AID_THK_B_201


 30 33  0  0  0  0  0  0  0  0999 V2000
   62.7593   40.6027   -0.6123 N   0  0  0  0  0  0  0  0  0  0  0  0
   62.5969   41.5808   -1.7058 C   0  0  0  0  0  0  0  0  0  0  0  0
   62.2866   40.9013   -3.0453 C   0  0  0  0  0  0  0  0  0  0  0  0
   63.2794   39.7720   -3.3811 C   0  0  0  0  0  0  0  0  0  0  0  0
   64.5917   40.3241   -3.4307 O   0  0  0  0  0  0  0  0  0  0  0  0
   63.2541   38.7623   -2.2207 C   0  0  0  0  0  0  0  0  0  0  0  0
   63.6275   39.4445   -0.9016 C   0  0  0  0  0  0  0  0  0  0  0  0
   64.8102   40.7161   -2.5708 H   0  0  0  0  0  0  0  0  0  0  0  0
   63.0411   39.2199   -4.6793 C   0  0  0  0  0  0  0  0  0  0  0  0
   61.8165   38.5770   -4.9442 C   0  0  0  0  0  0  0  0  0  0  0  0
   61.5782   37.9425   -6.1651 C   0  0  0  0  0  0  0  0  0  0  0  0
   62.5576   37.9548   -7.1587 C   0  0  0  0  0  0  0  0  0  0  0  0
   62.2785   37.0753   -8.6437 Cl  0  0  0  0  0  0  0  0  0  0  0  0
   63.7677   38.6304   -6.9280 C   0  0  0  0  0  0  0  0  0  0  0  0
   64.0051   39.2728   -5.7019 C   0  0  0  0  0  0  0  0  0  0  0  0
   63.2553   41.2367    0.6269 C   0  0  0  0  0  0  0  0  0  0  0  0
   63.4161   40.2397    1.7800 C   0  0  0  0  0  0  0  0  0  0  0  0
   62.1839   40.3633    2.6921 C   0  0  0  0  0  0  0  0  0  0  0  0
   62.5563   40.6510    4.1606 C   0  0  0  0  0  0  0  0  0  0  0  0
   61.7342   42.1953    4.6621 S   0  0  0  0  0  0  0  0  0  0  0  0
   63.1389   42.9631    5.5251 C   0  0  0  0  0  0  0  0  0  0  0  0
   64.4849   42.2656    5.3101 C   0  0  0  0  0  0  0  0  0  0  0  0
   64.3799   40.8400    4.2092 S   0  0  0  0  0  0  0  0  0  0  0  0
   62.1781   39.5555    4.9954 C   0  0  0  0  0  0  0  0  0  0  0  0
   63.0726   39.0685    5.9639 C   0  0  0  0  0  0  0  0  0  0  0  0
   62.7816   37.9212    6.7081 C   0  0  0  0  0  0  0  0  0  0  0  0
   61.5778   37.2481    6.4996 C   0  0  0  0  0  0  0  0  0  0  0  0
   61.3092   36.0917    7.1745 F   0  0  0  0  0  0  0  0  0  0  0  0
   60.6621   37.7509    5.5713 C   0  0  0  0  0  0  0  0  0  0  0  0
   60.9487   38.9017    4.8282 C   0  0  0  0  0  0  0  0  0  0  0  0
  1  2  1  0  0  0
  1  7  1  0  0  0
  1 16  1  0  0  0
  2  3  1  0  0  0
  3  4  1  0  0  0
  4  5  1  0  0  0
  4  6  1  0  0  0
  4  9  1  0  0  0
  6  7  1  0  0  0
 16 17  1  0  0  0
 17 18  1  0  0  0
 18 19  1  0  0  0
 19 24  1  0  0  0
 19 20  1  0  0  0
 19 23  1  0  0  0
 24 25  2  0  0  0
 24 30  1  0  0  0
 25 26  1  0  0  0
 26 27  2  0  0  0
 27 28  1  0  0  0
 27 29  1  0  0  0
 29 30  2  0  0  0
  9 10  2  0  0  0
  9 15  1  0  0  0
 10 11  1  0  0  0
 11 12  2  0  0  0
 12 13  1  0  0  0
 12 14  1  0  0  0
 14 15  2  0  0  0
 20 21  1  0  0  0
 21 22  1  0  0  0
 22 23  1  0  0  0
  5  8  1  0  0  0
M  END
> <minimizedAffinity>
-7.66416

$$$$
1AID_THK_B_201


 30 33  0  0  0  0  0  0  0  0999 V2000
   67.2502   40.6138   -0.1511 N   0  0  0  0  0  0  0  0  0  0  0  0
   68.1568   40.1539    0.9192 C   0  0  0  0  0  0  0  0  0  0  0  0
   67.3900   39.6858    2.1622 C   0  0  0  0  0  0  0  0  0  0  0  0
   66.3543   40.7196    2.6441 C   0  0  0  0  0  0  0  0  0  0  0  0
   67.0350   41.9342    2.9455 O   0  0  0  0  0  0  0  0  0  0  0  0
   65.4001   41.0112    1.4732 C   0  0  0  0  0  0  0  0  0  0  0  0
   66.1751   41.5372    0.2617 C   0  0  0  0  0  0  0  0  0  0  0  0
   67.4853   42.2585    2.1499 H   0  0  0  0  0  0  0  0  0  0  0  0
   65.7233   40.3154    3.8629 C   0  0  0  0  0  0  0  0  0  0  0  0
   65.8626   38.9863    4.3069 C   0  0  0  0  0  0  0  0  0  0  0  0
   65.1882   38.5240    5.4390 C   0  0  0  0  0  0  0  0  0  0  0  0
   64.3717   39.3914    6.1653 C   0  0  0  0  0  0  0  0  0  0  0  0
   63.4620   38.7713    7.5233 Cl  0  0  0  0  0  0  0  0  0  0  0  0
   64.2571   40.7325    5.7624 C   0  0  0  0  0  0  0  0  0  0  0  0
   64.9395   41.1984    4.6268 C   0  0  0  0  0  0  0  0  0  0  0  0
   67.9863   41.2507   -1.2629 C   0  0  0  0  0  0  0  0  0  0  0  0
   67.5357   40.7464   -2.6385 C   0  0  0  0  0  0  0  0  0  0  0  0
   66.9759   39.3245   -2.4648 C   0  0  0  0  0  0  0  0  0  0  0  0
   67.2890   38.4102   -3.6665 C   0  0  0  0  0  0  0  0  0  0  0  0
   68.1231   36.9181   -3.0418 S   0  0  0  0  0  0  0  0  0  0  0  0
   69.4363   36.8162   -4.2959 C   0  0  0  0  0  0  0  0  0  0  0  0
   69.5697   38.0526   -5.1892 C   0  0  0  0  0  0  0  0  0  0  0  0
   68.4014   39.3624   -4.7709 S   0  0  0  0  0  0  0  0  0  0  0  0
   66.0912   38.0889   -4.3748 C   0  0  0  0  0  0  0  0  0  0  0  0
   65.5753   36.7823   -4.3267 C   0  0  0  0  0  0  0  0  0  0  0  0
   64.4784   36.4066   -5.1080 C   0  0  0  0  0  0  0  0  0  0  0  0
   63.8717   37.3431   -5.9451 C   0  0  0  0  0  0  0  0  0  0  0  0
   62.8401   36.9731   -6.7596 F   0  0  0  0  0  0  0  0  0  0  0  0
   64.3491   38.6565   -5.9653 C   0  0  0  0  0  0  0  0  0  0  0  0
   65.4439   39.0367   -5.1809 C   0  0  0  0  0  0  0  0  0  0  0  0
  1  2  1  0  0  0
  1  7  1  0  0  0
  1 16  1  0  0  0
  2  3  1  0  0  0
  3  4  1  0  0  0
  4  5  1  0  0  0
  4  6  1  0  0  0
  4  9  1  0  0  0
  6  7  1  0  0  0
 16 17  1  0  0  0
 17 18  1  0  0  0
 18 19  1  0  0  0
 19 24  1  0  0  0
 19 20  1  0  0  0
 19 23  1  0  0  0
 24 25  2  0  0  0
 24 30  1  0  0  0
 25 26  1  0  0  0
 26 27  2  0  0  0
 27 28  1  0  0  0
 27 29  1  0  0  0
 29 30  2  0  0  0
  9 10  2  0  0  0
  9 15  1  0  0  0
 10 11  1  0  0  0
 11 12  2  0  0  0
 12 13  1  0  0  0
 12 14  1  0  0  0
 14 15  2  0  0  0
 20 21  1  0  0  0
 21 22  1  0  0  0
 22 23  1  0  0  0
  5  8  1  0  0  0
M  END
> <minimizedAffinity>
-7.60379

$$$$
1AID_THK_B_201


 30 33  0  0  0  0  0  0  0  0999 V2000
   67.2099   40.8229   -0.9400 N   0  0  0  0  0  0  0  0  0  0  0  0
   67.9001   40.7998    0.3646 C   0  0  0  0  0  0  0  0  0  0  0  0
   66.9311   41.0202    1.5329 C   0  0  0  0  0  0  0  0  0  0  0  0
   66.0396   42.2615    1.3376 C   0  0  0  0  0  0  0  0  0  0  0  0
   66.8794   43.4046    1.2058 O   0  0  0  0  0  0  0  0  0  0  0  0
   65.2854   42.0949    0.0072 C   0  0  0  0  0  0  0  0  0  0  0  0
   66.2687   41.9392   -1.1563 C   0  0  0  0  0  0  0  0  0  0  0  0
   67.4641   43.2897    0.4404 H   0  0  0  0  0  0  0  0  0  0  0  0
   65.2172   42.5136    2.4810 C   0  0  0  0  0  0  0  0  0  0  0  0
   64.0242   43.2459    2.3279 C   0  0  0  0  0  0  0  0  0  0  0  0
   63.2400   43.5958    3.4291 C   0  0  0  0  0  0  0  0  0  0  0  0
   63.6247   43.2014    4.7109 C   0  0  0  0  0  0  0  0  0  0  0  0
   62.6819   43.7287    6.0854 Cl  0  0  0  0  0  0  0  0  0  0  0  0
   64.7882   42.4315    4.8770 C   0  0  0  0  0  0  0  0  0  0  0  0
   65.5740   42.0756    3.7689 C   0  0  0  0  0  0  0  0  0  0  0  0
   68.1629   40.8144   -2.0693 C   0  0  0  0  0  0  0  0  0  0  0  0
   68.2398   39.4535   -2.7705 C   0  0  0  0  0  0  0  0  0  0  0  0
   67.2907   39.4866   -3.9803 C   0  0  0  0  0  0  0  0  0  0  0  0
   66.8097   38.0824   -4.3985 C   0  0  0  0  0  0  0  0  0  0  0  0
   66.6922   37.0539   -2.9016 S   0  0  0  0  0  0  0  0  0  0  0  0
   67.4736   35.5508   -3.5630 C   0  0  0  0  0  0  0  0  0  0  0  0
   68.1650   35.7283   -4.9177 C   0  0  0  0  0  0  0  0  0  0  0  0
   68.0762   37.4173   -5.5462 S   0  0  0  0  0  0  0  0  0  0  0  0
   65.5584   38.1663   -5.0819 C   0  0  0  0  0  0  0  0  0  0  0  0
   64.7197   37.0407   -5.1530 C   0  0  0  0  0  0  0  0  0  0  0  0
   63.5504   37.0549   -5.9195 C   0  0  0  0  0  0  0  0  0  0  0  0
   63.1966   38.2077   -6.6206 C   0  0  0  0  0  0  0  0  0  0  0  0
   62.0913   38.2145   -7.4225 F   0  0  0  0  0  0  0  0  0  0  0  0
   64.0003   39.3465   -6.5193 C   0  0  0  0  0  0  0  0  0  0  0  0
   65.1688   39.3367   -5.7491 C   0  0  0  0  0  0  0  0  0  0  0  0
  1  2  1  0  0  0
  1  7  1  0  0  0
  1 16  1  0  0  0
  2  3  1  0  0  0
  3  4  1  0  0  0
  4  5  1  0  0  0
  4  6  1  0  0  0
  4  9  1  0  0  0
  6  7  1  0  0  0
 16 17  1  0  0  0
 17 18  1  0  0  0
 18 19  1  0  0  0
 19 24  1  0  0  0
 19 20  1  0  0  0
 19 23  1  0  0  0
 24 25  2  0  0  0
 24 30  1  0  0  0
 25 26  1  0  0  0
 26 27  2  0  0  0
 27 28  1  0  0  0
 27 29  1  0  0  0
 29 30  2  0  0  0
  9 10  2  0  0  0
  9 15  1  0  0  0
 10 11  1  0  0  0
 11 12  2  0  0  0
 12 13  1  0  0  0
 12 14  1  0  0  0
 14 15  2  0  0  0
 20 21  1  0  0  0
 21 22  1  0  0  0
 22 23  1  0  0  0
  5  8  1  0  0  0
M  END
> <minimizedAffinity>
-7.49431

$$$$
1AID_THK_B_201


 30 33  0  0  0  0  0  0  0  0999 V2000
   65.3674   42.1576    1.1983 N   0  0  0  0  0  0  0  0  0  0  0  0
   64.5032   41.5478    0.1686 C   0  0  0  0  0  0  0  0  0  0  0  0
   65.2889   40.6218   -0.7681 C   0  0  0  0  0  0  0  0  0  0  0  0
   66.5466   41.2953   -1.3498 C   0  0  0  0  0  0  0  0  0  0  0  0
   66.1447   42.4565   -2.0705 O   0  0  0  0  0  0  0  0  0  0  0  0
   67.4148   41.7689   -0.1714 C   0  0  0  0  0  0  0  0  0  0  0  0
   66.6354   42.7414    0.7184 C   0  0  0  0  0  0  0  0  0  0  0  0
   65.6861   43.0663   -1.4715 H   0  0  0  0  0  0  0  0  0  0  0  0
   67.2093   40.4576   -2.3016 C   0  0  0  0  0  0  0  0  0  0  0  0
   68.1380   39.4991   -1.8522 C   0  0  0  0  0  0  0  0  0  0  0  0
   68.8765   38.7259   -2.7504 C   0  0  0  0  0  0  0  0  0  0  0  0
   68.6861   38.8825   -4.1237 C   0  0  0  0  0  0  0  0  0  0  0  0
   69.6862   37.9743   -5.2333 Cl  0  0  0  0  0  0  0  0  0  0  0  0
   67.7310   39.8021   -4.5885 C   0  0  0  0  0  0  0  0  0  0  0  0
   66.9849   40.5759   -3.6849 C   0  0  0  0  0  0  0  0  0  0  0  0
   64.6573   43.1994    1.9691 C   0  0  0  0  0  0  0  0  0  0  0  0
   63.8124   42.6211    3.1098 C   0  0  0  0  0  0  0  0  0  0  0  0
   64.7515   41.8563    4.0578 C   0  0  0  0  0  0  0  0  0  0  0  0
   64.3496   40.3774    4.2291 C   0  0  0  0  0  0  0  0  0  0  0  0
   62.5801   40.2209    3.8333 S   0  0  0  0  0  0  0  0  0  0  0  0
   62.1012   39.1522    5.2246 C   0  0  0  0  0  0  0  0  0  0  0  0
   63.1660   38.9993    6.3143 C   0  0  0  0  0  0  0  0  0  0  0  0
   64.6629   39.9514    5.9852 S   0  0  0  0  0  0  0  0  0  0  0  0
   65.1537   39.5417    3.3954 C   0  0  0  0  0  0  0  0  0  0  0  0
   66.5482   39.7146    3.3632 C   0  0  0  0  0  0  0  0  0  0  0  0
   67.3471   38.9991    2.4661 C   0  0  0  0  0  0  0  0  0  0  0  0
   66.7581   38.0862    1.5913 C   0  0  0  0  0  0  0  0  0  0  0  0
   67.5187   37.4277    0.6679 F   0  0  0  0  0  0  0  0  0  0  0  0
   65.3779   37.8742    1.6474 C   0  0  0  0  0  0  0  0  0  0  0  0
   64.5763   38.5855    2.5475 C   0  0  0  0  0  0  0  0  0  0  0  0
  1  2  1  0  0  0
  1  7  1  0  0  0
  1 16  1  0  0  0
  2  3  1  0  0  0
  3  4  1  0  0  0
  4  5  1  0  0  0
  4  6  1  0  0  0
  4  9  1  0  0  0
  6  7  1  0  0  0
 16 17  1  0  0  0
 17 18  1  0  0  0
 18 19  1  0  0  0
 19 24  1  0  0  0
 19 20  1  0  0  0
 19 23  1  0  0  0
 24 25  2  0  0  0
 24 30  1  0  0  0
 25 26  1  0  0  0
 26 27  2  0  0  0
 27 28  1  0  0  0
 27 29  1  0  0  0
 29 30  2  0  0  0
  9 10  2  0  0  0
  9 15  1  0  0  0
 10 11  1  0  0  0
 11 12  2  0  0  0
 12 13  1  0  0  0
 12 14  1  0  0  0
 14 15  2  0  0  0
 20 21  1  0  0  0
 21 22  1  0  0  0
 22 23  1  0  0  0
  5  8  1  0  0  0
M  END
> <minimizedAffinity>
-7.40724

$$$$
1AID_THK_B_201


 30 33  0  0  0  0  0  0  0  0999 V2000
   64.6854   38.0398    0.5030 N   0  0  0  0  0  0  0  0  0  0  0  0
   63.6835   37.0199    0.1357 C   0  0  0  0  0  0  0  0  0  0  0  0
   63.5715   36.8433   -1.3837 C   0  0  0  0  0  0  0  0  0  0  0  0
   63.3781   38.1809   -2.1234 C   0  0  0  0  0  0  0  0  0  0  0  0
   62.1903   38.7987   -1.6365 O   0  0  0  0  0  0  0  0  0  0  0  0
   64.5545   39.0995   -1.7506 C   0  0  0  0  0  0  0  0  0  0  0  0
   64.6132   39.3157   -0.2358 C   0  0  0  0  0  0  0  0  0  0  0  0
   62.2741   38.9536   -0.6826 H   0  0  0  0  0  0  0  0  0  0  0  0
   63.1698   37.9904   -3.5260 C   0  0  0  0  0  0  0  0  0  0  0  0
   64.1624   37.3503   -4.2928 C   0  0  0  0  0  0  0  0  0  0  0  0
   64.0432   37.2271   -5.6787 C   0  0  0  0  0  0  0  0  0  0  0  0
   62.9135   37.7271   -6.3272 C   0  0  0  0  0  0  0  0  0  0  0  0
   62.8255   37.6482   -8.0714 Cl  0  0  0  0  0  0  0  0  0  0  0  0
   61.8926   38.3284   -5.5721 C   0  0  0  0  0  0  0  0  0  0  0  0
   62.0104   38.4475   -4.1778 C   0  0  0  0  0  0  0  0  0  0  0  0
   64.6497   38.3545    1.9463 C   0  0  0  0  0  0  0  0  0  0  0  0
   63.8255   39.6083    2.2598 C   0  0  0  0  0  0  0  0  0  0  0  0
   62.5573   39.1693    3.0111 C   0  0  0  0  0  0  0  0  0  0  0  0
   62.4567   39.7858    4.4210 C   0  0  0  0  0  0  0  0  0  0  0  0
   61.0840   40.9808    4.4210 S   0  0  0  0  0  0  0  0  0  0  0  0
   61.9165   42.3253    5.3191 C   0  0  0  0  0  0  0  0  0  0  0  0
   63.4263   42.1420    5.4961 C   0  0  0  0  0  0  0  0  0  0  0  0
   64.0537   40.6305    4.7364 S   0  0  0  0  0  0  0  0  0  0  0  0
   62.2678   38.7636    5.4005 C   0  0  0  0  0  0  0  0  0  0  0  0
   63.3571   38.3147    6.1669 C   0  0  0  0  0  0  0  0  0  0  0  0
   63.2307   37.2317    7.0421 C   0  0  0  0  0  0  0  0  0  0  0  0
   62.0009   36.5864    7.1714 C   0  0  0  0  0  0  0  0  0  0  0  0
   61.8798   35.4889    7.9748 F   0  0  0  0  0  0  0  0  0  0  0  0
   60.9007   37.0545    6.4477 C   0  0  0  0  0  0  0  0  0  0  0  0
   61.0231   38.1413    5.5744 C   0  0  0  0  0  0  0  0  0  0  0  0
  1  2  1  0  0  0
  1  7  1  0  0  0
  1 16  1  0  0  0
  2  3  1  0  0  0
  3  4  1  0  0  0
  4  5  1  0  0  0
  4  6  1  0  0  0
  4  9  1  0  0  0
  6  7  1  0  0  0
 16 17  1  0  0  0
 17 18  1  0  0  0
 18 19  1  0  0  0
 19 24  1  0  0  0
 19 20  1  0  0  0
 19 23  1  0  0  0
 24 25  2  0  0  0
 24 30  1  0  0  0
 25 26  1  0  0  0
 26 27  2  0  0  0
 27 28  1  0  0  0
 27 29  1  0  0  0
 29 30  2  0  0  0
  9 10  2  0  0  0
  9 15  1  0  0  0
 10 11  1  0  0  0
 11 12  2  0  0  0
 12 13  1  0  0  0
 12 14  1  0  0  0
 14 15  2  0  0  0
 20 21  1  0  0  0
 21 22  1  0  0  0
 22 23  1  0  0  0
  5  8  1  0  0  0
M  END
> <minimizedAffinity>
-7.37176

$$$$
