1ADD_1DA_A_353


 24 26  0  0  0  0  0  0  0  0999 V2000
    8.1903   19.0551   37.4008 C   0  0  0  0  0  0  0  0  0  0  0  0
    7.0387   19.7253   37.9321 O   0  0  0  0  0  0  0  0  0  0  0  0
    7.6380   17.9080   36.5508 C   0  0  0  0  0  0  0  0  0  0  0  0
    8.5295   16.7924   36.4385 O   0  0  0  0  0  0  0  0  0  0  0  0
    6.3484   17.5380   37.2616 C   0  0  0  0  0  0  0  0  0  0  0  0
    6.7522   16.6212   38.2662 O   0  0  0  0  0  0  0  0  0  0  0  0
    5.9562   18.7957   38.0371 C   0  0  0  0  0  0  0  0  0  0  0  0
    8.7266   16.4458   37.3228 H   0  0  0  0  0  0  0  0  0  0  0  0
    7.4444   17.0248   38.8128 H   0  0  0  0  0  0  0  0  0  0  0  0
    4.7206   19.2859   37.5783 N   0  0  0  0  0  0  0  0  0  0  0  0
    4.2462   19.2654   36.3199 C   0  0  0  0  0  0  0  0  0  0  0  0
    2.9994   19.7564   36.2592 N   0  0  0  0  0  0  0  0  0  0  0  0
    2.6622   20.0084   37.5518 C   0  0  0  0  0  0  0  0  0  0  0  0
    1.5110   20.4753   38.1229 C   0  0  0  0  0  0  0  0  0  0  0  0
    0.4128   20.7126   37.4006 N   0  0  0  0  0  0  0  0  0  0  0  0
    1.5065   20.6948   39.4822 C   0  0  0  0  0  0  0  0  0  0  0  0
    2.6394   20.4470   40.2464 C   0  0  0  0  0  0  0  0  0  0  0  0
    3.7395   19.9943   39.6656 N   0  0  0  0  0  0  0  0  0  0  0  0
    3.7369   19.7795   38.3417 C   0  0  0  0  0  0  0  0  0  0  0  0
    0.4191   20.5547   36.4289 H   0  0  0  0  0  0  0  0  0  0  0  0
   -0.4029   21.0455   37.8400 H   0  0  0  0  0  0  0  0  0  0  0  0
   10.3086   19.4644   36.2416 O   0  0  0  0  0  0  0  0  0  0  0  0
    9.0509   20.0360   36.6120 C   0  0  0  0  0  0  0  0  0  0  0  0
   10.8259   20.1162   35.7432 H   0  0  0  0  0  0  0  0  0  0  0  0
 22 23  1  0  0  0
 23  1  1  0  0  0
  1  2  1  0  0  0
  1  3  1  0  0  0
  2  7  1  0  0  0
  3  4  1  0  0  0
  3  5  1  0  0  0
  5  6  1  0  0  0
  5  7  1  0  0  0
  7 10  1  0  0  0
 10 11  1  0  0  0
 10 19  1  0  0  0
 11 12  2  0  0  0
 12 13  1  0  0  0
 13 14  1  0  0  0
 13 19  2  0  0  0
 14 15  1  0  0  0
 14 16  2  0  0  0
 16 17  1  0  0  0
 17 18  2  0  0  0
 18 19  1  0  0  0
 22 24  1  0  0  0
  4  8  1  0  0  0
  6  9  1  0  0  0
 15 20  1  0  0  0
 15 21  1  0  0  0
M  END
> <minimizedAffinity>
-9.52920

$$$$
1ADD_1DA_A_353


 24 26  0  0  0  0  0  0  0  0999 V2000
    4.5067   19.6650   38.3449 C   0  0  0  0  0  0  0  0  0  0  0  0
    5.5050   19.0165   39.1450 O   0  0  0  0  0  0  0  0  0  0  0  0
    4.3968   18.8245   37.0702 C   0  0  0  0  0  0  0  0  0  0  0  0
    3.9591   19.5667   35.9259 O   0  0  0  0  0  0  0  0  0  0  0  0
    5.8020   18.2778   36.8919 C   0  0  0  0  0  0  0  0  0  0  0  0
    6.4871   19.2966   36.1809 O   0  0  0  0  0  0  0  0  0  0  0  0
    6.4165   18.3186   38.2911 C   0  0  0  0  0  0  0  0  0  0  0  0
    4.5781   20.2940   35.7561 H   0  0  0  0  0  0  0  0  0  0  0  0
    6.4093   20.1351   36.6623 H   0  0  0  0  0  0  0  0  0  0  0  0
    6.7382   17.0187   38.7204 N   0  0  0  0  0  0  0  0  0  0  0  0
    6.3630   16.4158   39.8626 C   0  0  0  0  0  0  0  0  0  0  0  0
    6.7949   15.1468   39.9106 N   0  0  0  0  0  0  0  0  0  0  0  0
    7.3869   14.9359   38.7052 C   0  0  0  0  0  0  0  0  0  0  0  0
    7.9715   13.8296   38.1539 C   0  0  0  0  0  0  0  0  0  0  0  0
    7.9802   12.6509   38.7821 N   0  0  0  0  0  0  0  0  0  0  0  0
    8.5570   13.9577   36.9142 C   0  0  0  0  0  0  0  0  0  0  0  0
    8.5505   15.1758   36.2471 C   0  0  0  0  0  0  0  0  0  0  0  0
    7.9759   16.2296   36.8056 N   0  0  0  0  0  0  0  0  0  0  0  0
    7.4046   16.0978   38.0119 C   0  0  0  0  0  0  0  0  0  0  0  0
    7.5608   12.5624   39.6684 H   0  0  0  0  0  0  0  0  0  0  0  0
    8.4059   11.8706   38.3589 H   0  0  0  0  0  0  0  0  0  0  0  0
    3.3698   20.4349   40.3731 O   0  0  0  0  0  0  0  0  0  0  0  0
    3.1975   19.7668   39.1201 C   0  0  0  0  0  0  0  0  0  0  0  0
    2.5182   20.4799   40.8353 H   0  0  0  0  0  0  0  0  0  0  0  0
 22 23  1  0  0  0
 23  1  1  0  0  0
  1  2  1  0  0  0
  1  3  1  0  0  0
  2  7  1  0  0  0
  3  4  1  0  0  0
  3  5  1  0  0  0
  5  6  1  0  0  0
  5  7  1  0  0  0
  7 10  1  0  0  0
 10 11  1  0  0  0
 10 19  1  0  0  0
 11 12  2  0  0  0
 12 13  1  0  0  0
 13 14  1  0  0  0
 13 19  2  0  0  0
 14 15  1  0  0  0
 14 16  2  0  0  0
 16 17  1  0  0  0
 17 18  2  0  0  0
 18 19  1  0  0  0
 22 24  1  0  0  0
  4  8  1  0  0  0
  6  9  1  0  0  0
 15 20  1  0  0  0
 15 21  1  0  0  0
M  END
> <minimizedAffinity>
-7.50049

$$$$
1ADD_1DA_A_353


 24 26  0  0  0  0  0  0  0  0999 V2000
    7.6394   16.8598   36.6049 C   0  0  0  0  0  0  0  0  0  0  0  0
    6.2289   17.0972   36.7127 O   0  0  0  0  0  0  0  0  0  0  0  0
    8.3070   18.0480   37.3021 C   0  0  0  0  0  0  0  0  0  0  0  0
    9.6191   18.3431   36.8090 O   0  0  0  0  0  0  0  0  0  0  0  0
    7.3350   19.1877   37.0540 C   0  0  0  0  0  0  0  0  0  0  0  0
    7.7111   19.6995   35.7854 O   0  0  0  0  0  0  0  0  0  0  0  0
    5.9909   18.5053   36.7998 C   0  0  0  0  0  0  0  0  0  0  0  0
    9.5718   18.5371   35.8598 H   0  0  0  0  0  0  0  0  0  0  0  0
    7.7079   18.9815   35.1332 H   0  0  0  0  0  0  0  0  0  0  0  0
    5.0602   18.8791   37.7855 N   0  0  0  0  0  0  0  0  0  0  0  0
    5.1958   18.7828   39.1203 C   0  0  0  0  0  0  0  0  0  0  0  0
    4.1358   19.3011   39.7582 N   0  0  0  0  0  0  0  0  0  0  0  0
    3.3551   19.8167   38.7720 C   0  0  0  0  0  0  0  0  0  0  0  0
    2.1730   20.5031   38.8052 C   0  0  0  0  0  0  0  0  0  0  0  0
    1.5947   20.8539   39.9569 N   0  0  0  0  0  0  0  0  0  0  0  0
    1.5841   20.8346   37.6055 C   0  0  0  0  0  0  0  0  0  0  0  0
    2.1771   20.4811   36.4004 C   0  0  0  0  0  0  0  0  0  0  0  0
    3.3224   19.8173   36.3996 N   0  0  0  0  0  0  0  0  0  0  0  0
    3.8929   19.4999   37.5713 C   0  0  0  0  0  0  0  0  0  0  0  0
    2.0183   20.6155   40.8131 H   0  0  0  0  0  0  0  0  0  0  0  0
    0.7449   21.3509   39.9497 H   0  0  0  0  0  0  0  0  0  0  0  0
    6.8330   14.7112   37.4604 O   0  0  0  0  0  0  0  0  0  0  0  0
    7.9940   15.5133   37.2265 C   0  0  0  0  0  0  0  0  0  0  0  0
    7.0983   13.8657   37.8549 H   0  0  0  0  0  0  0  0  0  0  0  0
 22 23  1  0  0  0
 23  1  1  0  0  0
  1  2  1  0  0  0
  1  3  1  0  0  0
  2  7  1  0  0  0
  3  4  1  0  0  0
  3  5  1  0  0  0
  5  6  1  0  0  0
  5  7  1  0  0  0
  7 10  1  0  0  0
 10 11  1  0  0  0
 10 19  1  0  0  0
 11 12  2  0  0  0
 12 13  1  0  0  0
 13 14  1  0  0  0
 13 19  2  0  0  0
 14 15  1  0  0  0
 14 16  2  0  0  0
 16 17  1  0  0  0
 17 18  2  0  0  0
 18 19  1  0  0  0
 22 24  1  0  0  0
  4  8  1  0  0  0
  6  9  1  0  0  0
 15 20  1  0  0  0
 15 21  1  0  0  0
M  END
> <minimizedAffinity>
-7.14592

$$$$
1ADD_1DA_A_353


 24 26  0  0  0  0  0  0  0  0999 V2000
    7.4412   16.7628   37.6815 C   0  0  0  0  0  0  0  0  0  0  0  0
    6.8828   17.8338   36.9077 O   0  0  0  0  0  0  0  0  0  0  0  0
    6.5835   16.6846   38.9472 C   0  0  0  0  0  0  0  0  0  0  0  0
    7.2779   16.1545   40.0825 O   0  0  0  0  0  0  0  0  0  0  0  0
    6.1516   18.1239   39.1641 C   0  0  0  0  0  0  0  0  0  0  0  0
    7.2166   18.7024   39.9015 O   0  0  0  0  0  0  0  0  0  0  0  0
    6.2542   18.7738   37.7842 C   0  0  0  0  0  0  0  0  0  0  0  0
    8.0516   16.7069   40.2751 H   0  0  0  0  0  0  0  0  0  0  0  0
    8.0501   18.5707   39.4232 H   0  0  0  0  0  0  0  0  0  0  0  0
    4.9885   19.2129   37.3567 N   0  0  0  0  0  0  0  0  0  0  0  0
    4.4540   19.1022   36.1274 C   0  0  0  0  0  0  0  0  0  0  0  0
    3.1965   19.5681   36.0971 N   0  0  0  0  0  0  0  0  0  0  0  0
    2.9178   19.8990   37.3859 C   0  0  0  0  0  0  0  0  0  0  0  0
    1.7869   20.3838   37.9821 C   0  0  0  0  0  0  0  0  0  0  0  0
    0.6505   20.5556   37.3015 N   0  0  0  0  0  0  0  0  0  0  0  0
    1.8443   20.6920   39.3229 C   0  0  0  0  0  0  0  0  0  0  0  0
    3.0176   20.5132   40.0441 C   0  0  0  0  0  0  0  0  0  0  0  0
    4.0966   20.0410   39.4399 N   0  0  0  0  0  0  0  0  0  0  0  0
    4.0338   19.7397   38.1345 C   0  0  0  0  0  0  0  0  0  0  0  0
    0.6126   20.3343   36.3429 H   0  0  0  0  0  0  0  0  0  0  0  0
   -0.1492   20.9034   37.7584 H   0  0  0  0  0  0  0  0  0  0  0  0
    6.7609   14.4139   37.5459 O   0  0  0  0  0  0  0  0  0  0  0  0
    7.4427   15.4730   36.8682 C   0  0  0  0  0  0  0  0  0  0  0  0
    6.7831   13.6130   36.9991 H   0  0  0  0  0  0  0  0  0  0  0  0
 22 23  1  0  0  0
 23  1  1  0  0  0
  1  2  1  0  0  0
  1  3  1  0  0  0
  2  7  1  0  0  0
  3  4  1  0  0  0
  3  5  1  0  0  0
  5  6  1  0  0  0
  5  7  1  0  0  0
  7 10  1  0  0  0
 10 11  1  0  0  0
 10 19  1  0  0  0
 11 12  2  0  0  0
 12 13  1  0  0  0
 13 14  1  0  0  0
 13 19  2  0  0  0
 14 15  1  0  0  0
 14 16  2  0  0  0
 16 17  1  0  0  0
 17 18  2  0  0  0
 18 19  1  0  0  0
 22 24  1  0  0  0
  4  8  1  0  0  0
  6  9  1  0  0  0
 15 20  1  0  0  0
 15 21  1  0  0  0
M  END
> <minimizedAffinity>
-6.86573

$$$$
1ADD_1DA_A_353


 24 26  0  0  0  0  0  0  0  0999 V2000
    5.0136   19.2822   38.3290 C   0  0  0  0  0  0  0  0  0  0  0  0
    6.0219   18.4611   38.9346 O   0  0  0  0  0  0  0  0  0  0  0  0
    4.8247   18.7209   36.9174 C   0  0  0  0  0  0  0  0  0  0  0  0
    4.3655   19.6903   35.9680 O   0  0  0  0  0  0  0  0  0  0  0  0
    6.2029   18.1887   36.5675 C   0  0  0  0  0  0  0  0  0  0  0  0
    6.8915   19.3140   36.0458 O   0  0  0  0  0  0  0  0  0  0  0  0
    6.8747   17.9298   37.9161 C   0  0  0  0  0  0  0  0  0  0  0  0
    5.0005   20.4220   35.9201 H   0  0  0  0  0  0  0  0  0  0  0  0
    6.8608   20.0389   36.6896 H   0  0  0  0  0  0  0  0  0  0  0  0
    7.1709   16.5626   38.0588 N   0  0  0  0  0  0  0  0  0  0  0  0
    7.3747   15.6611   37.0816 C   0  0  0  0  0  0  0  0  0  0  0  0
    7.7056   14.4620   37.5836 N   0  0  0  0  0  0  0  0  0  0  0  0
    7.7934   14.6598   38.9257 C   0  0  0  0  0  0  0  0  0  0  0  0
    8.1333   13.8245   39.9534 C   0  0  0  0  0  0  0  0  0  0  0  0
    8.5338   12.5688   39.7371 N   0  0  0  0  0  0  0  0  0  0  0  0
    8.0571   14.3154   41.2376 C   0  0  0  0  0  0  0  0  0  0  0  0
    7.6476   15.6208   41.4769 C   0  0  0  0  0  0  0  0  0  0  0  0
    7.3256   16.4066   40.4615 N   0  0  0  0  0  0  0  0  0  0  0  0
    7.4048   15.9238   39.2126 C   0  0  0  0  0  0  0  0  0  0  0  0
    8.5873   12.2206   38.8177 H   0  0  0  0  0  0  0  0  0  0  0  0
    8.7755   11.9913   40.4969 H   0  0  0  0  0  0  0  0  0  0  0  0
    3.5820   20.4528   39.9350 O   0  0  0  0  0  0  0  0  0  0  0  0
    3.7410   19.2555   39.1687 C   0  0  0  0  0  0  0  0  0  0  0  0
    2.7643   20.3983   40.4540 H   0  0  0  0  0  0  0  0  0  0  0  0
 22 23  1  0  0  0
 23  1  1  0  0  0
  1  2  1  0  0  0
  1  3  1  0  0  0
  2  7  1  0  0  0
  3  4  1  0  0  0
  3  5  1  0  0  0
  5  6  1  0  0  0
  5  7  1  0  0  0
  7 10  1  0  0  0
 10 11  1  0  0  0
 10 19  1  0  0  0
 11 12  2  0  0  0
 12 13  1  0  0  0
 13 14  1  0  0  0
 13 19  2  0  0  0
 14 15  1  0  0  0
 14 16  2  0  0  0
 16 17  1  0  0  0
 17 18  2  0  0  0
 18 19  1  0  0  0
 22 24  1  0  0  0
  4  8  1  0  0  0
  6  9  1  0  0  0
 15 20  1  0  0  0
 15 21  1  0  0  0
M  END
> <minimizedAffinity>
-6.71470

$$$$
