1A69_FMB_A_240


 24 26  0  0  0  0  0  0  0  0999 V2000
  -18.2862   72.0412   65.5158 N   0  0  0  0  0  0  0  0  0  0  0  0
  -17.4361   72.1848   66.5873 C   0  0  0  0  0  0  0  0  0  0  0  0
  -17.5180   71.4689   67.7057 N   0  0  0  0  0  0  0  0  0  0  0  0
  -18.5285   70.5766   67.6553 C   0  0  0  0  0  0  0  0  0  0  0  0
  -19.4300   70.3578   66.6319 C   0  0  0  0  0  0  0  0  0  0  0  0
  -19.3363   71.1249   65.4540 C   0  0  0  0  0  0  0  0  0  0  0  0
  -20.0461   71.0671   64.4462 O   0  0  0  0  0  0  0  0  0  0  0  0
  -20.3234   69.3510   66.9652 N   0  0  0  0  0  0  0  0  0  0  0  0
  -19.9577   68.9865   68.1700 N   0  0  0  0  0  0  0  0  0  0  0  0
  -18.8703   69.6922   68.6511 C   0  0  0  0  0  0  0  0  0  0  0  0
  -18.1435   72.6264   64.7372 H   0  0  0  0  0  0  0  0  0  0  0  0
  -21.0621   68.9925   66.4221 H   0  0  0  0  0  0  0  0  0  0  0  0
  -18.4400   69.0704   69.9285 C   0  0  0  0  0  0  0  0  0  0  0  0
  -16.9345   69.1620   70.1499 C   0  0  0  0  0  0  0  0  0  0  0  0
  -16.4160   67.8574   70.3203 O   0  0  0  0  0  0  0  0  0  0  0  0
  -16.7706   70.1034   71.3696 C   0  0  0  0  0  0  0  0  0  0  0  0
  -16.3879   69.4203   72.5824 O   0  0  0  0  0  0  0  0  0  0  0  0
  -18.1508   70.7277   71.5440 C   0  0  0  0  0  0  0  0  0  0  0  0
  -19.0718   69.7529   71.0009 O   0  0  0  0  0  0  0  0  0  0  0  0
  -16.8740   67.4209   71.0556 H   0  0  0  0  0  0  0  0  0  0  0  0
  -17.0601   68.7577   72.8062 H   0  0  0  0  0  0  0  0  0  0  0  0
  -18.3316   72.0703   70.8395 C   0  0  0  0  0  0  0  0  0  0  0  0
  -19.7041   72.4958   70.7537 O   0  0  0  0  0  0  0  0  0  0  0  0
  -20.2096   71.8538   70.2309 H   0  0  0  0  0  0  0  0  0  0  0  0
  1  2  1  0  0  0
  1  6  1  0  0  0
  2  3  2  0  0  0
  3  4  1  0  0  0
  4  5  2  0  0  0
  4 10  1  0  0  0
  5  6  1  0  0  0
  5  8  1  0  0  0
  6  7  2  0  0  0
  8  9  1  0  0  0
  9 10  2  0  0  0
 10 13  1  0  0  0
 13 14  1  0  0  0
 13 19  1  0  0  0
 14 15  1  0  0  0
 14 16  1  0  0  0
 16 17  1  0  0  0
 16 18  1  0  0  0
 18 19  1  0  0  0
 18 22  1  0  0  0
 22 23  1  0  0  0
  1 11  1  0  0  0
  8 12  1  0  0  0
 15 20  1  0  0  0
 17 21  1  0  0  0
 23 24  1  0  0  0
M  END
> <minimizedAffinity>
-9.11248

$$$$
1A69_FMB_A_240


 24 26  0  0  0  0  0  0  0  0999 V2000
  -18.5488   72.6732   64.8542 N   0  0  0  0  0  0  0  0  0  0  0  0
  -17.5702   72.8597   65.8023 C   0  0  0  0  0  0  0  0  0  0  0  0
  -17.4082   72.0828   66.8701 N   0  0  0  0  0  0  0  0  0  0  0  0
  -18.3130   71.0827   66.9026 C   0  0  0  0  0  0  0  0  0  0  0  0
  -19.3270   70.8131   66.0042 C   0  0  0  0  0  0  0  0  0  0  0  0
  -19.4916   71.6453   64.8794 C   0  0  0  0  0  0  0  0  0  0  0  0
  -20.3322   71.5570   63.9802 O   0  0  0  0  0  0  0  0  0  0  0  0
  -20.0475   69.6934   66.3914 N   0  0  0  0  0  0  0  0  0  0  0  0
  -19.4706   69.3127   67.5051 N   0  0  0  0  0  0  0  0  0  0  0  0
  -18.4066   70.1147   67.8746 C   0  0  0  0  0  0  0  0  0  0  0  0
  -18.5866   73.3102   64.1046 H   0  0  0  0  0  0  0  0  0  0  0  0
  -20.8154   69.2797   65.9350 H   0  0  0  0  0  0  0  0  0  0  0  0
  -17.7276   69.4825   69.0335 C   0  0  0  0  0  0  0  0  0  0  0  0
  -16.4636   70.2249   69.4519 C   0  0  0  0  0  0  0  0  0  0  0  0
  -15.3693   69.3304   69.4033 O   0  0  0  0  0  0  0  0  0  0  0  0
  -16.7875   70.7982   70.8544 C   0  0  0  0  0  0  0  0  0  0  0  0
  -16.1197   70.1075   71.9319 O   0  0  0  0  0  0  0  0  0  0  0  0
  -18.2963   70.6225   70.9873 C   0  0  0  0  0  0  0  0  0  0  0  0
  -18.6158   69.4934   70.1408 O   0  0  0  0  0  0  0  0  0  0  0  0
  -15.5537   68.5630   69.9673 H   0  0  0  0  0  0  0  0  0  0  0  0
  -16.3779   69.1725   71.9258 H   0  0  0  0  0  0  0  0  0  0  0  0
  -19.1146   71.8414   70.5675 C   0  0  0  0  0  0  0  0  0  0  0  0
  -20.5015   71.5464   70.3185 O   0  0  0  0  0  0  0  0  0  0  0  0
  -20.5713   70.9166   69.5841 H   0  0  0  0  0  0  0  0  0  0  0  0
  1  2  1  0  0  0
  1  6  1  0  0  0
  2  3  2  0  0  0
  3  4  1  0  0  0
  4  5  2  0  0  0
  4 10  1  0  0  0
  5  6  1  0  0  0
  5  8  1  0  0  0
  6  7  2  0  0  0
  8  9  1  0  0  0
  9 10  2  0  0  0
 10 13  1  0  0  0
 13 14  1  0  0  0
 13 19  1  0  0  0
 14 15  1  0  0  0
 14 16  1  0  0  0
 16 17  1  0  0  0
 16 18  1  0  0  0
 18 19  1  0  0  0
 18 22  1  0  0  0
 22 23  1  0  0  0
  1 11  1  0  0  0
  8 12  1  0  0  0
 15 20  1  0  0  0
 17 21  1  0  0  0
 23 24  1  0  0  0
M  END
> <minimizedAffinity>
-8.93061

$$$$
1A69_FMB_A_240


 24 26  0  0  0  0  0  0  0  0999 V2000
  -21.1740   70.3181   68.6999 N   0  0  0  0  0  0  0  0  0  0  0  0
  -20.8516   70.4583   70.0294 C   0  0  0  0  0  0  0  0  0  0  0  0
  -19.6163   70.3542   70.5125 N   0  0  0  0  0  0  0  0  0  0  0  0
  -18.7174   70.1069   69.5375 C   0  0  0  0  0  0  0  0  0  0  0  0
  -18.9410   69.9507   68.1834 C   0  0  0  0  0  0  0  0  0  0  0  0
  -20.2539   70.0587   67.6839 C   0  0  0  0  0  0  0  0  0  0  0  0
  -20.6382   69.9515   66.5161 O   0  0  0  0  0  0  0  0  0  0  0  0
  -17.7540   69.7044   67.5102 N   0  0  0  0  0  0  0  0  0  0  0  0
  -16.8452   69.7090   68.4547 N   0  0  0  0  0  0  0  0  0  0  0  0
  -17.3630   69.9484   69.7141 C   0  0  0  0  0  0  0  0  0  0  0  0
  -22.1213   70.4071   68.4472 H   0  0  0  0  0  0  0  0  0  0  0  0
  -17.6239   69.5596   66.5451 H   0  0  0  0  0  0  0  0  0  0  0  0
  -16.2305   70.1130   70.6595 C   0  0  0  0  0  0  0  0  0  0  0  0
  -16.6208   70.8799   71.9179 C   0  0  0  0  0  0  0  0  0  0  0  0
  -15.7838   72.0130   72.0423 O   0  0  0  0  0  0  0  0  0  0  0  0
  -16.5060   69.8438   73.0642 C   0  0  0  0  0  0  0  0  0  0  0  0
  -15.3595   70.0472   73.9174 O   0  0  0  0  0  0  0  0  0  0  0  0
  -16.3804   68.5060   72.3434 C   0  0  0  0  0  0  0  0  0  0  0  0
  -15.7862   68.8267   71.0637 O   0  0  0  0  0  0  0  0  0  0  0  0
  -14.8560   71.7302   72.0521 H   0  0  0  0  0  0  0  0  0  0  0  0
  -14.5487   69.9955   73.3874 H   0  0  0  0  0  0  0  0  0  0  0  0
  -17.7030   67.7709   72.1386 C   0  0  0  0  0  0  0  0  0  0  0  0
  -17.5635   66.3394   72.0799 O   0  0  0  0  0  0  0  0  0  0  0  0
  -17.0086   66.0994   71.3214 H   0  0  0  0  0  0  0  0  0  0  0  0
  1  2  1  0  0  0
  1  6  1  0  0  0
  2  3  2  0  0  0
  3  4  1  0  0  0
  4  5  2  0  0  0
  4 10  1  0  0  0
  5  6  1  0  0  0
  5  8  1  0  0  0
  6  7  2  0  0  0
  8  9  1  0  0  0
  9 10  2  0  0  0
 10 13  1  0  0  0
 13 14  1  0  0  0
 13 19  1  0  0  0
 14 15  1  0  0  0
 14 16  1  0  0  0
 16 17  1  0  0  0
 16 18  1  0  0  0
 18 19  1  0  0  0
 18 22  1  0  0  0
 22 23  1  0  0  0
  1 11  1  0  0  0
  8 12  1  0  0  0
 15 20  1  0  0  0
 17 21  1  0  0  0
 23 24  1  0  0  0
M  END
> <minimizedAffinity>
-8.83558

$$$$
1A69_FMB_A_240


 24 26  0  0  0  0  0  0  0  0999 V2000
  -20.1384   70.4324   65.5137 N   0  0  0  0  0  0  0  0  0  0  0  0
  -20.4898   69.3846   66.3321 C   0  0  0  0  0  0  0  0  0  0  0  0
  -19.8343   69.0519   67.4411 N   0  0  0  0  0  0  0  0  0  0  0  0
  -18.7908   69.8753   67.6711 C   0  0  0  0  0  0  0  0  0  0  0  0
  -18.3604   70.9475   66.9141 C   0  0  0  0  0  0  0  0  0  0  0  0
  -19.0598   71.2878   65.7395 C   0  0  0  0  0  0  0  0  0  0  0  0
  -18.8234   72.2048   64.9481 O   0  0  0  0  0  0  0  0  0  0  0  0
  -17.2454   71.5419   67.4855 N   0  0  0  0  0  0  0  0  0  0  0  0
  -17.0183   70.8263   68.5600 N   0  0  0  0  0  0  0  0  0  0  0  0
  -17.9223   69.7946   68.7341 C   0  0  0  0  0  0  0  0  0  0  0  0
  -20.6870   70.5901   64.7115 H   0  0  0  0  0  0  0  0  0  0  0  0
  -16.7407   72.3216   67.1593 H   0  0  0  0  0  0  0  0  0  0  0  0
  -17.6780   69.1810   70.0635 C   0  0  0  0  0  0  0  0  0  0  0  0
  -16.5013   69.8146   70.7969 C   0  0  0  0  0  0  0  0  0  0  0  0
  -15.5548   68.8085   71.1004 O   0  0  0  0  0  0  0  0  0  0  0  0
  -17.1331   70.5199   72.0234 C   0  0  0  0  0  0  0  0  0  0  0  0
  -16.8836   69.8433   73.2740 O   0  0  0  0  0  0  0  0  0  0  0  0
  -18.6283   70.5144   71.7245 C   0  0  0  0  0  0  0  0  0  0  0  0
  -18.8328   69.3664   70.8680 O   0  0  0  0  0  0  0  0  0  0  0  0
  -15.9820   68.1083   71.6181 H   0  0  0  0  0  0  0  0  0  0  0  0
  -17.2417   68.9428   73.2315 H   0  0  0  0  0  0  0  0  0  0  0  0
  -19.1412   71.7788   71.0390 C   0  0  0  0  0  0  0  0  0  0  0  0
  -20.4166   71.6075   70.3938 O   0  0  0  0  0  0  0  0  0  0  0  0
  -20.3377   70.9414   69.6931 H   0  0  0  0  0  0  0  0  0  0  0  0
  1  2  1  0  0  0
  1  6  1  0  0  0
  2  3  2  0  0  0
  3  4  1  0  0  0
  4  5  2  0  0  0
  4 10  1  0  0  0
  5  6  1  0  0  0
  5  8  1  0  0  0
  6  7  2  0  0  0
  8  9  1  0  0  0
  9 10  2  0  0  0
 10 13  1  0  0  0
 13 14  1  0  0  0
 13 19  1  0  0  0
 14 15  1  0  0  0
 14 16  1  0  0  0
 16 17  1  0  0  0
 16 18  1  0  0  0
 18 19  1  0  0  0
 18 22  1  0  0  0
 22 23  1  0  0  0
  1 11  1  0  0  0
  8 12  1  0  0  0
 15 20  1  0  0  0
 17 21  1  0  0  0
 23 24  1  0  0  0
M  END
> <minimizedAffinity>
-8.41974

$$$$
1A69_FMB_A_240


 24 26  0  0  0  0  0  0  0  0999 V2000
  -16.4706   68.1946   73.1702 N   0  0  0  0  0  0  0  0  0  0  0  0
  -17.2614   67.6645   72.1777 C   0  0  0  0  0  0  0  0  0  0  0  0
  -17.7194   68.3579   71.1387 N   0  0  0  0  0  0  0  0  0  0  0  0
  -17.3031   69.6407   71.1710 C   0  0  0  0  0  0  0  0  0  0  0  0
  -16.5129   70.2630   72.1177 C   0  0  0  0  0  0  0  0  0  0  0  0
  -16.0373   69.5198   73.2160 C   0  0  0  0  0  0  0  0  0  0  0  0
  -15.3258   69.9044   74.1481 O   0  0  0  0  0  0  0  0  0  0  0  0
  -16.3097   71.5961   71.7948 N   0  0  0  0  0  0  0  0  0  0  0  0
  -16.9758   71.7586   70.6777 N   0  0  0  0  0  0  0  0  0  0  0  0
  -17.6049   70.6074   70.2409 C   0  0  0  0  0  0  0  0  0  0  0  0
  -16.1905   67.5963   73.9002 H   0  0  0  0  0  0  0  0  0  0  0  0
  -15.7857   72.2663   72.2905 H   0  0  0  0  0  0  0  0  0  0  0  0
  -18.1628   70.8658   68.8898 C   0  0  0  0  0  0  0  0  0  0  0  0
  -18.4060   69.5857   68.0987 C   0  0  0  0  0  0  0  0  0  0  0  0
  -17.6820   69.6519   66.8856 O   0  0  0  0  0  0  0  0  0  0  0  0
  -19.9456   69.5013   67.9462 C   0  0  0  0  0  0  0  0  0  0  0  0
  -20.4142   69.8024   66.6144 O   0  0  0  0  0  0  0  0  0  0  0  0
  -20.4728   70.5444   68.9255 C   0  0  0  0  0  0  0  0  0  0  0  0
  -19.4127   71.5233   69.0333 O   0  0  0  0  0  0  0  0  0  0  0  0
  -17.9440   70.4471   66.3958 H   0  0  0  0  0  0  0  0  0  0  0  0
  -20.1398   70.7002   66.3704 H   0  0  0  0  0  0  0  0  0  0  0  0
  -20.8230   69.9957   70.3067 C   0  0  0  0  0  0  0  0  0  0  0  0
  -20.8106   68.5579   70.3757 O   0  0  0  0  0  0  0  0  0  0  0  0
  -21.4802   68.1995   69.7723 H   0  0  0  0  0  0  0  0  0  0  0  0
  1  2  1  0  0  0
  1  6  1  0  0  0
  2  3  2  0  0  0
  3  4  1  0  0  0
  4  5  2  0  0  0
  4 10  1  0  0  0
  5  6  1  0  0  0
  5  8  1  0  0  0
  6  7  2  0  0  0
  8  9  1  0  0  0
  9 10  2  0  0  0
 10 13  1  0  0  0
 13 14  1  0  0  0
 13 19  1  0  0  0
 14 15  1  0  0  0
 14 16  1  0  0  0
 16 17  1  0  0  0
 16 18  1  0  0  0
 18 19  1  0  0  0
 18 22  1  0  0  0
 22 23  1  0  0  0
  1 11  1  0  0  0
  8 12  1  0  0  0
 15 20  1  0  0  0
 17 21  1  0  0  0
 23 24  1  0  0  0
M  END
> <minimizedAffinity>
-8.01743

$$$$
1A69_FMB_A_240


 24 26  0  0  0  0  0  0  0  0999 V2000
  -19.8381   72.5566   64.2124 N   0  0  0  0  0  0  0  0  0  0  0  0
  -20.2927   71.2984   64.5311 C   0  0  0  0  0  0  0  0  0  0  0  0
  -19.7582   70.5293   65.4759 N   0  0  0  0  0  0  0  0  0  0  0  0
  -18.7241   71.1391   66.0914 C   0  0  0  0  0  0  0  0  0  0  0  0
  -18.1965   72.3916   65.8451 C   0  0  0  0  0  0  0  0  0  0  0  0
  -18.7680   73.1955   64.8392 C   0  0  0  0  0  0  0  0  0  0  0  0
  -18.4335   74.3295   64.4854 O   0  0  0  0  0  0  0  0  0  0  0  0
  -17.1304   72.6555   66.6917 N   0  0  0  0  0  0  0  0  0  0  0  0
  -17.0274   71.5717   67.4217 N   0  0  0  0  0  0  0  0  0  0  0  0
  -17.9674   70.6073   67.1088 C   0  0  0  0  0  0  0  0  0  0  0  0
  -20.3007   73.0409   63.4907 H   0  0  0  0  0  0  0  0  0  0  0  0
  -16.5782   73.4694   66.7346 H   0  0  0  0  0  0  0  0  0  0  0  0
  -17.8701   69.5191   68.1138 C   0  0  0  0  0  0  0  0  0  0  0  0
  -17.2039   69.9712   69.4083 C   0  0  0  0  0  0  0  0  0  0  0  0
  -16.0794   69.1501   69.6562 O   0  0  0  0  0  0  0  0  0  0  0  0
  -18.3242   69.8985   70.4761 C   0  0  0  0  0  0  0  0  0  0  0  0
  -18.1811   68.7927   71.3929 O   0  0  0  0  0  0  0  0  0  0  0  0
  -19.6022   69.7299   69.6617 C   0  0  0  0  0  0  0  0  0  0  0  0
  -19.1813   69.0824   68.4381 O   0  0  0  0  0  0  0  0  0  0  0  0
  -16.3576   68.2213   69.6859 H   0  0  0  0  0  0  0  0  0  0  0  0
  -18.1879   67.9589   70.8973 H   0  0  0  0  0  0  0  0  0  0  0  0
  -20.3259   71.0360   69.3423 C   0  0  0  0  0  0  0  0  0  0  0  0
  -21.7157   71.0313   69.7177 O   0  0  0  0  0  0  0  0  0  0  0  0
  -22.1829   70.3425   69.2194 H   0  0  0  0  0  0  0  0  0  0  0  0
  1  2  1  0  0  0
  1  6  1  0  0  0
  2  3  2  0  0  0
  3  4  1  0  0  0
  4  5  2  0  0  0
  4 10  1  0  0  0
  5  6  1  0  0  0
  5  8  1  0  0  0
  6  7  2  0  0  0
  8  9  1  0  0  0
  9 10  2  0  0  0
 10 13  1  0  0  0
 13 14  1  0  0  0
 13 19  1  0  0  0
 14 15  1  0  0  0
 14 16  1  0  0  0
 16 17  1  0  0  0
 16 18  1  0  0  0
 18 19  1  0  0  0
 18 22  1  0  0  0
 22 23  1  0  0  0
  1 11  1  0  0  0
  8 12  1  0  0  0
 15 20  1  0  0  0
 17 21  1  0  0  0
 23 24  1  0  0  0
M  END
> <minimizedAffinity>
-7.66152

$$$$
1A69_FMB_A_240


 24 26  0  0  0  0  0  0  0  0999 V2000
  -18.7400   71.4339   65.7421 N   0  0  0  0  0  0  0  0  0  0  0  0
  -17.7465   72.2267   66.2672 C   0  0  0  0  0  0  0  0  0  0  0  0
  -17.1482   71.9986   67.4335 N   0  0  0  0  0  0  0  0  0  0  0  0
  -17.6265   70.8882   68.0319 C   0  0  0  0  0  0  0  0  0  0  0  0
  -18.6153   70.0320   67.5879 C   0  0  0  0  0  0  0  0  0  0  0  0
  -19.2447   70.2860   66.3534 C   0  0  0  0  0  0  0  0  0  0  0  0
  -20.1374   69.6356   65.8029 O   0  0  0  0  0  0  0  0  0  0  0  0
  -18.8231   69.0027   68.4936 N   0  0  0  0  0  0  0  0  0  0  0  0
  -17.9736   69.2524   69.4601 N   0  0  0  0  0  0  0  0  0  0  0  0
  -17.2127   70.3863   69.2434 C   0  0  0  0  0  0  0  0  0  0  0  0
  -19.1221   71.6950   64.8732 H   0  0  0  0  0  0  0  0  0  0  0  0
  -19.4615   68.2563   68.4261 H   0  0  0  0  0  0  0  0  0  0  0  0
  -16.1736   70.4588   70.3010 C   0  0  0  0  0  0  0  0  0  0  0  0
  -16.6875   71.0930   71.5885 C   0  0  0  0  0  0  0  0  0  0  0  0
  -15.8804   72.2109   71.9028 O   0  0  0  0  0  0  0  0  0  0  0  0
  -16.6644   69.9467   72.6307 C   0  0  0  0  0  0  0  0  0  0  0  0
  -15.6035   70.0671   73.6023 O   0  0  0  0  0  0  0  0  0  0  0  0
  -16.4558   68.6891   71.7940 C   0  0  0  0  0  0  0  0  0  0  0  0
  -15.7513   69.1400   70.6133 O   0  0  0  0  0  0  0  0  0  0  0  0
  -14.9538   71.9321   71.9699 H   0  0  0  0  0  0  0  0  0  0  0  0
  -14.7471   70.0725   73.1469 H   0  0  0  0  0  0  0  0  0  0  0  0
  -17.7443   67.9735   71.3951 C   0  0  0  0  0  0  0  0  0  0  0  0
  -17.9553   66.7336   72.0955 O   0  0  0  0  0  0  0  0  0  0  0  0
  -17.2360   66.1174   71.8860 H   0  0  0  0  0  0  0  0  0  0  0  0
  1  2  1  0  0  0
  1  6  1  0  0  0
  2  3  2  0  0  0
  3  4  1  0  0  0
  4  5  2  0  0  0
  4 10  1  0  0  0
  5  6  1  0  0  0
  5  8  1  0  0  0
  6  7  2  0  0  0
  8  9  1  0  0  0
  9 10  2  0  0  0
 10 13  1  0  0  0
 13 14  1  0  0  0
 13 19  1  0  0  0
 14 15  1  0  0  0
 14 16  1  0  0  0
 16 17  1  0  0  0
 16 18  1  0  0  0
 18 19  1  0  0  0
 18 22  1  0  0  0
 22 23  1  0  0  0
  1 11  1  0  0  0
  8 12  1  0  0  0
 15 20  1  0  0  0
 17 21  1  0  0  0
 23 24  1  0  0  0
M  END
> <minimizedAffinity>
-7.45728

$$$$
1A69_FMB_A_240


 24 26  0  0  0  0  0  0  0  0999 V2000
  -15.8130   70.1599   73.1981 N   0  0  0  0  0  0  0  0  0  0  0  0
  -16.1609   71.3632   72.6304 C   0  0  0  0  0  0  0  0  0  0  0  0
  -16.7134   71.4881   71.4265 N   0  0  0  0  0  0  0  0  0  0  0  0
  -16.9018   70.2898   70.8362 C   0  0  0  0  0  0  0  0  0  0  0  0
  -16.5883   69.0352   71.3215 C   0  0  0  0  0  0  0  0  0  0  0  0
  -15.9997   68.9155   72.5958 C   0  0  0  0  0  0  0  0  0  0  0  0
  -15.6572   67.8870   73.1857 O   0  0  0  0  0  0  0  0  0  0  0  0
  -16.9368   68.0499   70.4101 N   0  0  0  0  0  0  0  0  0  0  0  0
  -17.4423   68.7148   69.3999 N   0  0  0  0  0  0  0  0  0  0  0  0
  -17.4518   70.0839   69.5929 C   0  0  0  0  0  0  0  0  0  0  0  0
  -15.4031   70.1780   74.0930 H   0  0  0  0  0  0  0  0  0  0  0  0
  -16.8294   67.0755   70.5009 H   0  0  0  0  0  0  0  0  0  0  0  0
  -18.2076   70.7061   68.4771 C   0  0  0  0  0  0  0  0  0  0  0  0
  -18.8900   69.6774   67.5826 C   0  0  0  0  0  0  0  0  0  0  0  0
  -18.4393   69.8545   66.2539 O   0  0  0  0  0  0  0  0  0  0  0  0
  -20.4066   69.9060   67.8026 C   0  0  0  0  0  0  0  0  0  0  0  0
  -21.0638   70.5492   66.6898 O   0  0  0  0  0  0  0  0  0  0  0  0
  -20.4713   70.8082   69.0301 C   0  0  0  0  0  0  0  0  0  0  0  0
  -19.2211   71.5366   69.0232 O   0  0  0  0  0  0  0  0  0  0  0  0
  -18.6137   70.7661   65.9721 H   0  0  0  0  0  0  0  0  0  0  0  0
  -20.6533   71.4129   66.5271 H   0  0  0  0  0  0  0  0  0  0  0  0
  -20.6386   70.0651   70.3535 C   0  0  0  0  0  0  0  0  0  0  0  0
  -20.7603   68.6387   70.2020 O   0  0  0  0  0  0  0  0  0  0  0  0
  -21.5544   68.4353   69.6834 H   0  0  0  0  0  0  0  0  0  0  0  0
  1  2  1  0  0  0
  1  6  1  0  0  0
  2  3  2  0  0  0
  3  4  1  0  0  0
  4  5  2  0  0  0
  4 10  1  0  0  0
  5  6  1  0  0  0
  5  8  1  0  0  0
  6  7  2  0  0  0
  8  9  1  0  0  0
  9 10  2  0  0  0
 10 13  1  0  0  0
 13 14  1  0  0  0
 13 19  1  0  0  0
 14 15  1  0  0  0
 14 16  1  0  0  0
 16 17  1  0  0  0
 16 18  1  0  0  0
 18 19  1  0  0  0
 18 22  1  0  0  0
 22 23  1  0  0  0
  1 11  1  0  0  0
  8 12  1  0  0  0
 15 20  1  0  0  0
 17 21  1  0  0  0
 23 24  1  0  0  0
M  END
> <minimizedAffinity>
-7.42327

$$$$
1A69_FMB_A_240


 24 26  0  0  0  0  0  0  0  0999 V2000
  -18.3145   70.6997   66.5207 N   0  0  0  0  0  0  0  0  0  0  0  0
  -17.1753   70.5799   67.2816 C   0  0  0  0  0  0  0  0  0  0  0  0
  -17.1623   70.1614   68.5444 N   0  0  0  0  0  0  0  0  0  0  0  0
  -18.4012   69.8572   68.9831 C   0  0  0  0  0  0  0  0  0  0  0  0
  -19.5987   69.9431   68.3001 C   0  0  0  0  0  0  0  0  0  0  0  0
  -19.6007   70.3917   66.9646 C   0  0  0  0  0  0  0  0  0  0  0  0
  -20.5645   70.5291   66.2063 O   0  0  0  0  0  0  0  0  0  0  0  0
  -20.6563   69.5404   69.1015 N   0  0  0  0  0  0  0  0  0  0  0  0
  -20.0909   69.2281   70.2420 N   0  0  0  0  0  0  0  0  0  0  0  0
  -18.7186   69.3974   70.2394 C   0  0  0  0  0  0  0  0  0  0  0  0
  -18.2154   71.0259   65.5971 H   0  0  0  0  0  0  0  0  0  0  0  0
  -21.6117   69.4987   68.8676 H   0  0  0  0  0  0  0  0  0  0  0  0
  -18.1787   68.8416   71.5056 C   0  0  0  0  0  0  0  0  0  0  0  0
  -16.8128   68.1888   71.3267 C   0  0  0  0  0  0  0  0  0  0  0  0
  -16.8876   66.8438   71.7571 O   0  0  0  0  0  0  0  0  0  0  0  0
  -15.8372   69.0866   72.1286 C   0  0  0  0  0  0  0  0  0  0  0  0
  -15.3861   68.4934   73.3650 O   0  0  0  0  0  0  0  0  0  0  0  0
  -16.6490   70.3425   72.4263 C   0  0  0  0  0  0  0  0  0  0  0  0
  -18.0269   69.9013   72.4379 O   0  0  0  0  0  0  0  0  0  0  0  0
  -17.1957   66.8152   72.6764 H   0  0  0  0  0  0  0  0  0  0  0  0
  -16.1509   68.3052   73.9312 H   0  0  0  0  0  0  0  0  0  0  0  0
  -16.4670   71.4689   71.4115 C   0  0  0  0  0  0  0  0  0  0  0  0
  -15.5672   72.5023   71.8528 O   0  0  0  0  0  0  0  0  0  0  0  0
  -15.9237   72.9221   72.6513 H   0  0  0  0  0  0  0  0  0  0  0  0
  1  2  1  0  0  0
  1  6  1  0  0  0
  2  3  2  0  0  0
  3  4  1  0  0  0
  4  5  2  0  0  0
  4 10  1  0  0  0
  5  6  1  0  0  0
  5  8  1  0  0  0
  6  7  2  0  0  0
  8  9  1  0  0  0
  9 10  2  0  0  0
 10 13  1  0  0  0
 13 14  1  0  0  0
 13 19  1  0  0  0
 14 15  1  0  0  0
 14 16  1  0  0  0
 16 17  1  0  0  0
 16 18  1  0  0  0
 18 19  1  0  0  0
 18 22  1  0  0  0
 22 23  1  0  0  0
  1 11  1  0  0  0
  8 12  1  0  0  0
 15 20  1  0  0  0
 17 21  1  0  0  0
 23 24  1  0  0  0
M  END
> <minimizedAffinity>
-7.32614

$$$$
1A69_FMB_A_240


 24 26  0  0  0  0  0  0  0  0999 V2000
  -16.1561   68.4378   72.9090 N   0  0  0  0  0  0  0  0  0  0  0  0
  -16.8609   67.4820   72.2155 C   0  0  0  0  0  0  0  0  0  0  0  0
  -17.8355   67.7541   71.3516 N   0  0  0  0  0  0  0  0  0  0  0  0
  -18.0394   69.0821   71.2299 C   0  0  0  0  0  0  0  0  0  0  0  0
  -17.3881   70.1133   71.8782 C   0  0  0  0  0  0  0  0  0  0  0  0
  -16.3607   69.8130   72.7940 C   0  0  0  0  0  0  0  0  0  0  0  0
  -15.6752   70.5962   73.4571 O   0  0  0  0  0  0  0  0  0  0  0  0
  -17.8908   71.3435   71.4820 N   0  0  0  0  0  0  0  0  0  0  0  0
  -18.8289   71.0412   70.6179 N   0  0  0  0  0  0  0  0  0  0  0  0
  -18.9727   69.6808   70.4168 C   0  0  0  0  0  0  0  0  0  0  0  0
  -15.4577   68.1298   73.5307 H   0  0  0  0  0  0  0  0  0  0  0  0
  -17.6081   72.2380   71.7809 H   0  0  0  0  0  0  0  0  0  0  0  0
  -19.9226   69.4740   69.2950 C   0  0  0  0  0  0  0  0  0  0  0  0
  -20.4194   70.7844   68.6951 C   0  0  0  0  0  0  0  0  0  0  0  0
  -21.8313   70.8162   68.7687 O   0  0  0  0  0  0  0  0  0  0  0  0
  -19.8310   70.8116   67.2620 C   0  0  0  0  0  0  0  0  0  0  0  0
  -20.8085   70.5649   66.2287 O   0  0  0  0  0  0  0  0  0  0  0  0
  -18.7933   69.6944   67.2661 C   0  0  0  0  0  0  0  0  0  0  0  0
  -19.2591   68.7570   68.2650 O   0  0  0  0  0  0  0  0  0  0  0  0
  -22.1962   70.0389   68.3175 H   0  0  0  0  0  0  0  0  0  0  0  0
  -21.2133   69.6944   66.3678 H   0  0  0  0  0  0  0  0  0  0  0  0
  -17.3738   70.1505   67.5958 C   0  0  0  0  0  0  0  0  0  0  0  0
  -17.2749   71.5551   67.8951 O   0  0  0  0  0  0  0  0  0  0  0  0
  -17.5437   72.0709   67.1188 H   0  0  0  0  0  0  0  0  0  0  0  0
  1  2  1  0  0  0
  1  6  1  0  0  0
  2  3  2  0  0  0
  3  4  1  0  0  0
  4  5  2  0  0  0
  4 10  1  0  0  0
  5  6  1  0  0  0
  5  8  1  0  0  0
  6  7  2  0  0  0
  8  9  1  0  0  0
  9 10  2  0  0  0
 10 13  1  0  0  0
 13 14  1  0  0  0
 13 19  1  0  0  0
 14 15  1  0  0  0
 14 16  1  0  0  0
 16 17  1  0  0  0
 16 18  1  0  0  0
 18 19  1  0  0  0
 18 22  1  0  0  0
 22 23  1  0  0  0
  1 11  1  0  0  0
  8 12  1  0  0  0
 15 20  1  0  0  0
 17 21  1  0  0  0
 23 24  1  0  0  0
M  END
> <minimizedAffinity>
-6.83453

$$$$
