1ADL_ACD_A_135


 23 22  0  0  0  0  0  0  0  0999 V2000
  -49.4057   67.9062   -9.4261 C   0  0  0  0  0  0  0  0  0  0  0  0
  -50.1076   69.0388   -9.0284 C   0  0  0  0  0  0  0  0  0  0  0  0
  -48.3715   67.9920  -10.4383 C   0  0  0  0  0  0  0  0  0  0  0  0
  -49.0681   67.4316  -12.7433 C   0  0  0  0  0  0  0  0  0  0  0  0
  -48.5533   67.0343  -11.5150 C   0  0  0  0  0  0  0  0  0  0  0  0
  -49.4313   68.8138  -12.9697 C   0  0  0  0  0  0  0  0  0  0  0  0
  -50.8298   68.9753  -13.5359 C   0  0  0  0  0  0  0  0  0  0  0  0
  -51.8394   69.1277  -12.4188 C   0  0  0  0  0  0  0  0  0  0  0  0
  -52.7440   70.3180  -12.5945 C   0  0  0  0  0  0  0  0  0  0  0  0
  -52.2507   71.4468  -12.8349 O   0  0  0  0  0  0  0  0  0  0  0  0
  -53.9773   70.1362  -12.4828 O   0  0  0  0  0  0  0  0  0  0  0  0
  -54.3100   69.2789  -12.3029 H   0  0  0  0  0  0  0  0  0  0  0  0
  -49.8291   70.3427   -9.6120 C   0  0  0  0  0  0  0  0  0  0  0  0
  -50.9483   71.2627   -9.4938 C   0  0  0  0  0  0  0  0  0  0  0  0
  -50.8587   72.4221   -8.7237 C   0  0  0  0  0  0  0  0  0  0  0  0
  -49.6416   72.7611   -8.0075 C   0  0  0  0  0  0  0  0  0  0  0  0
  -49.7270   72.4829   -6.5800 C   0  0  0  0  0  0  0  0  0  0  0  0
  -48.6484   71.9234   -5.8948 C   0  0  0  0  0  0  0  0  0  0  0  0
  -47.4170   71.6018   -6.5910 C   0  0  0  0  0  0  0  0  0  0  0  0
  -47.2666   70.1142   -6.8882 C   0  0  0  0  0  0  0  0  0  0  0  0
  -46.2787   69.8803   -8.0170 C   0  0  0  0  0  0  0  0  0  0  0  0
  -46.2700   71.0413   -8.9993 C   0  0  0  0  0  0  0  0  0  0  0  0
  -45.7649   70.5970  -10.3494 C   0  0  0  0  0  0  0  0  0  0  0  0
  9  8  1  0  0  0
  9 10  2  0  0  0
  9 11  1  0  0  0
  8  7  1  0  0  0
  7  6  1  0  0  0
  6  4  1  0  0  0
  4  5  2  0  0  0
  5  3  1  0  0  0
  3  1  1  0  0  0
  1  2  2  0  0  0
  2 13  1  0  0  0
 13 14  1  0  0  0
 14 15  2  0  0  0
 15 16  1  0  0  0
 16 17  1  0  0  0
 17 18  2  0  0  0
 18 19  1  0  0  0
 19 20  1  0  0  0
 20 21  1  0  0  0
 21 22  1  0  0  0
 22 23  1  0  0  0
 11 12  1  0  0  0
M  END
> <minimizedAffinity>
-5.69946

$$$$
1ADL_ACD_A_135


 23 22  0  0  0  0  0  0  0  0999 V2000
  -50.5295   71.3299   -9.5697 C   0  0  0  0  0  0  0  0  0  0  0  0
  -50.6907   72.5227   -8.8732 C   0  0  0  0  0  0  0  0  0  0  0  0
  -50.4385   70.0662   -8.8653 C   0  0  0  0  0  0  0  0  0  0  0  0
  -48.9068   68.1360   -9.0667 C   0  0  0  0  0  0  0  0  0  0  0  0
  -49.1009   69.5007   -8.8892 C   0  0  0  0  0  0  0  0  0  0  0  0
  -50.0411   67.2531   -9.2329 C   0  0  0  0  0  0  0  0  0  0  0  0
  -49.9412   66.3851  -10.4734 C   0  0  0  0  0  0  0  0  0  0  0  0
  -50.1521   67.2164  -11.7203 C   0  0  0  0  0  0  0  0  0  0  0  0
  -48.9391   67.2702  -12.6102 C   0  0  0  0  0  0  0  0  0  0  0  0
  -47.8426   66.8193  -12.1986 O   0  0  0  0  0  0  0  0  0  0  0  0
  -49.0696   67.7808  -13.7455 O   0  0  0  0  0  0  0  0  0  0  0  0
  -49.9041   68.1073  -14.0192 H   0  0  0  0  0  0  0  0  0  0  0  0
  -50.7733   72.5427   -7.4203 C   0  0  0  0  0  0  0  0  0  0  0  0
  -49.8988   73.5370   -6.8206 C   0  0  0  0  0  0  0  0  0  0  0  0
  -48.7071   73.1738   -6.1934 C   0  0  0  0  0  0  0  0  0  0  0  0
  -48.2876   71.7858   -6.1140 C   0  0  0  0  0  0  0  0  0  0  0  0
  -47.1094   71.5959   -5.2785 C   0  0  0  0  0  0  0  0  0  0  0  0
  -46.0581   70.7812   -5.6993 C   0  0  0  0  0  0  0  0  0  0  0  0
  -46.1170   70.1005   -6.9789 C   0  0  0  0  0  0  0  0  0  0  0  0
  -45.8319   68.6064   -6.8777 C   0  0  0  0  0  0  0  0  0  0  0  0
  -46.7004   67.9557   -5.8160 C   0  0  0  0  0  0  0  0  0  0  0  0
  -45.8586   67.3133   -4.7243 C   0  0  0  0  0  0  0  0  0  0  0  0
  -44.9290   66.2769   -5.3046 C   0  0  0  0  0  0  0  0  0  0  0  0
  9  8  1  0  0  0
  9 10  2  0  0  0
  9 11  1  0  0  0
  8  7  1  0  0  0
  7  6  1  0  0  0
  6  4  1  0  0  0
  4  5  2  0  0  0
  5  3  1  0  0  0
  3  1  1  0  0  0
  1  2  2  0  0  0
  2 13  1  0  0  0
 13 14  1  0  0  0
 14 15  2  0  0  0
 15 16  1  0  0  0
 16 17  1  0  0  0
 17 18  2  0  0  0
 18 19  1  0  0  0
 19 20  1  0  0  0
 20 21  1  0  0  0
 21 22  1  0  0  0
 22 23  1  0  0  0
 11 12  1  0  0  0
M  END
> <minimizedAffinity>
-5.69852

$$$$
1ADL_ACD_A_135


 23 22  0  0  0  0  0  0  0  0999 V2000
  -50.4633   71.9185   -9.1342 C   0  0  0  0  0  0  0  0  0  0  0  0
  -50.0053   70.7417   -9.7165 C   0  0  0  0  0  0  0  0  0  0  0  0
  -50.7279   71.9874   -7.7106 C   0  0  0  0  0  0  0  0  0  0  0  0
  -49.1084   73.2017   -6.2910 C   0  0  0  0  0  0  0  0  0  0  0  0
  -50.2365   73.2116   -7.1028 C   0  0  0  0  0  0  0  0  0  0  0  0
  -48.4017   71.9645   -6.0389 C   0  0  0  0  0  0  0  0  0  0  0  0
  -46.8996   72.0929   -6.2116 C   0  0  0  0  0  0  0  0  0  0  0  0
  -46.5730   72.7621   -7.5290 C   0  0  0  0  0  0  0  0  0  0  0  0
  -45.5617   73.8694   -7.3978 C   0  0  0  0  0  0  0  0  0  0  0  0
  -44.6672   74.0041   -8.2678 O   0  0  0  0  0  0  0  0  0  0  0  0
  -45.6463   74.6229   -6.4019 O   0  0  0  0  0  0  0  0  0  0  0  0
  -46.3277   74.4924   -5.7722 H   0  0  0  0  0  0  0  0  0  0  0  0
  -49.7771   69.5450   -8.9203 C   0  0  0  0  0  0  0  0  0  0  0  0
  -48.3692   69.3149   -8.6410 C   0  0  0  0  0  0  0  0  0  0  0  0
  -47.6592   68.2951   -9.2743 C   0  0  0  0  0  0  0  0  0  0  0  0
  -48.2961   67.4195  -10.2422 C   0  0  0  0  0  0  0  0  0  0  0  0
  -47.9823   67.7732  -11.6202 C   0  0  0  0  0  0  0  0  0  0  0  0
  -48.9469   67.6691  -12.6225 C   0  0  0  0  0  0  0  0  0  0  0  0
  -50.2851   67.2015  -12.3148 C   0  0  0  0  0  0  0  0  0  0  0  0
  -51.3105   68.3267  -12.2348 C   0  0  0  0  0  0  0  0  0  0  0  0
  -50.8854   69.5137  -13.0803 C   0  0  0  0  0  0  0  0  0  0  0  0
  -52.0857   70.2259  -13.6845 C   0  0  0  0  0  0  0  0  0  0  0  0
  -53.2182   70.3039  -12.6913 C   0  0  0  0  0  0  0  0  0  0  0  0
  9  8  1  0  0  0
  9 10  2  0  0  0
  9 11  1  0  0  0
  8  7  1  0  0  0
  7  6  1  0  0  0
  6  4  1  0  0  0
  4  5  2  0  0  0
  5  3  1  0  0  0
  3  1  1  0  0  0
  1  2  2  0  0  0
  2 13  1  0  0  0
 13 14  1  0  0  0
 14 15  2  0  0  0
 15 16  1  0  0  0
 16 17  1  0  0  0
 17 18  2  0  0  0
 18 19  1  0  0  0
 19 20  1  0  0  0
 20 21  1  0  0  0
 21 22  1  0  0  0
 22 23  1  0  0  0
 11 12  1  0  0  0
M  END
> <minimizedAffinity>
-5.59793

$$$$
1ADL_ACD_A_135


 23 22  0  0  0  0  0  0  0  0999 V2000
  -49.1707   68.0435   -9.3008 C   0  0  0  0  0  0  0  0  0  0  0  0
  -50.0834   69.0923   -9.3258 C   0  0  0  0  0  0  0  0  0  0  0  0
  -47.9216   68.1645   -8.5751 C   0  0  0  0  0  0  0  0  0  0  0  0
  -46.0825   69.3060   -9.7697 C   0  0  0  0  0  0  0  0  0  0  0  0
  -46.7580   68.1358   -9.4438 C   0  0  0  0  0  0  0  0  0  0  0  0
  -46.5301   70.5776   -9.2441 C   0  0  0  0  0  0  0  0  0  0  0  0
  -45.5485   71.7055   -9.5021 C   0  0  0  0  0  0  0  0  0  0  0  0
  -46.1036   73.0180   -8.9928 C   0  0  0  0  0  0  0  0  0  0  0  0
  -45.1039   73.8183   -8.2015 C   0  0  0  0  0  0  0  0  0  0  0  0
  -45.4971   74.5646   -7.2721 O   0  0  0  0  0  0  0  0  0  0  0  0
  -43.8958   73.7151   -8.5119 O   0  0  0  0  0  0  0  0  0  0  0  0
  -43.6388   73.1477   -9.2119 H   0  0  0  0  0  0  0  0  0  0  0  0
  -49.8171   70.3411   -8.6275 C   0  0  0  0  0  0  0  0  0  0  0  0
  -50.4261   71.4901   -9.2772 C   0  0  0  0  0  0  0  0  0  0  0  0
  -50.7918   72.6253   -8.5541 C   0  0  0  0  0  0  0  0  0  0  0  0
  -50.5779   72.7091   -7.1201 C   0  0  0  0  0  0  0  0  0  0  0  0
  -49.5042   73.6251   -6.7590 C   0  0  0  0  0  0  0  0  0  0  0  0
  -48.3675   73.1672   -6.0926 C   0  0  0  0  0  0  0  0  0  0  0  0
  -48.2312   71.7666   -5.7402 C   0  0  0  0  0  0  0  0  0  0  0  0
  -46.7854   71.3451   -5.5041 C   0  0  0  0  0  0  0  0  0  0  0  0
  -46.6338   69.8375   -5.5994 C   0  0  0  0  0  0  0  0  0  0  0  0
  -45.1967   69.4397   -5.8985 C   0  0  0  0  0  0  0  0  0  0  0  0
  -44.3538   70.6561   -6.1902 C   0  0  0  0  0  0  0  0  0  0  0  0
  9  8  1  0  0  0
  9 10  2  0  0  0
  9 11  1  0  0  0
  8  7  1  0  0  0
  7  6  1  0  0  0
  6  4  1  0  0  0
  4  5  2  0  0  0
  5  3  1  0  0  0
  3  1  1  0  0  0
  1  2  2  0  0  0
  2 13  1  0  0  0
 13 14  1  0  0  0
 14 15  2  0  0  0
 15 16  1  0  0  0
 16 17  1  0  0  0
 17 18  2  0  0  0
 18 19  1  0  0  0
 19 20  1  0  0  0
 20 21  1  0  0  0
 21 22  1  0  0  0
 22 23  1  0  0  0
 11 12  1  0  0  0
M  END
> <minimizedAffinity>
-5.53905

$$$$
1ADL_ACD_A_135


 23 22  0  0  0  0  0  0  0  0999 V2000
  -49.9506   69.8588   -9.0331 C   0  0  0  0  0  0  0  0  0  0  0  0
  -50.5904   70.9916   -8.5421 C   0  0  0  0  0  0  0  0  0  0  0  0
  -48.6176   69.9454   -9.5963 C   0  0  0  0  0  0  0  0  0  0  0  0
  -46.2532   70.0910   -8.8887 C   0  0  0  0  0  0  0  0  0  0  0  0
  -47.5721   69.7559   -8.6060 C   0  0  0  0  0  0  0  0  0  0  0  0
  -45.9001   70.6383  -10.1807 C   0  0  0  0  0  0  0  0  0  0  0  0
  -45.2541   72.0082  -10.0889 C   0  0  0  0  0  0  0  0  0  0  0  0
  -45.9500   72.8532   -9.0439 C   0  0  0  0  0  0  0  0  0  0  0  0
  -45.0157   73.7766   -8.3087 C   0  0  0  0  0  0  0  0  0  0  0  0
  -45.4671   74.5527   -7.4317 O   0  0  0  0  0  0  0  0  0  0  0  0
  -43.8018   73.7423   -8.6119 O   0  0  0  0  0  0  0  0  0  0  0  0
  -43.5004   73.1496   -9.2721 H   0  0  0  0  0  0  0  0  0  0  0  0
  -49.9466   72.2964   -8.5767 C   0  0  0  0  0  0  0  0  0  0  0  0
  -50.3397   73.1475   -7.4658 C   0  0  0  0  0  0  0  0  0  0  0  0
  -49.4971   73.3533   -6.3735 C   0  0  0  0  0  0  0  0  0  0  0  0
  -48.1889   72.7270   -6.3000 C   0  0  0  0  0  0  0  0  0  0  0  0
  -48.1794   71.5280   -5.4725 C   0  0  0  0  0  0  0  0  0  0  0  0
  -46.9773   70.9329   -5.0897 C   0  0  0  0  0  0  0  0  0  0  0  0
  -45.7077   71.4937   -5.5115 C   0  0  0  0  0  0  0  0  0  0  0  0
  -44.6160   70.4439   -5.6856 C   0  0  0  0  0  0  0  0  0  0  0  0
  -45.1054   69.0716   -5.2588 C   0  0  0  0  0  0  0  0  0  0  0  0
  -44.3349   67.9627   -5.9586 C   0  0  0  0  0  0  0  0  0  0  0  0
  -44.8851   66.6092   -5.5839 C   0  0  0  0  0  0  0  0  0  0  0  0
  9  8  1  0  0  0
  9 10  2  0  0  0
  9 11  1  0  0  0
  8  7  1  0  0  0
  7  6  1  0  0  0
  6  4  1  0  0  0
  4  5  2  0  0  0
  5  3  1  0  0  0
  3  1  1  0  0  0
  1  2  2  0  0  0
  2 13  1  0  0  0
 13 14  1  0  0  0
 14 15  2  0  0  0
 15 16  1  0  0  0
 16 17  1  0  0  0
 17 18  2  0  0  0
 18 19  1  0  0  0
 19 20  1  0  0  0
 20 21  1  0  0  0
 21 22  1  0  0  0
 22 23  1  0  0  0
 11 12  1  0  0  0
M  END
> <minimizedAffinity>
-5.52532

$$$$
1ADL_ACD_A_135


 23 22  0  0  0  0  0  0  0  0999 V2000
  -50.3982   67.1109  -12.4007 C   0  0  0  0  0  0  0  0  0  0  0  0
  -50.8433   68.1090  -13.2607 C   0  0  0  0  0  0  0  0  0  0  0  0
  -49.5940   67.4368  -11.2395 C   0  0  0  0  0  0  0  0  0  0  0  0
  -49.8981   68.5620   -9.0591 C   0  0  0  0  0  0  0  0  0  0  0  0
  -50.3934   67.7415  -10.0656 C   0  0  0  0  0  0  0  0  0  0  0  0
  -48.5716   69.1297   -9.1669 C   0  0  0  0  0  0  0  0  0  0  0  0
  -47.6402   68.6774   -8.0577 C   0  0  0  0  0  0  0  0  0  0  0  0
  -46.3281   68.1901   -8.6332 C   0  0  0  0  0  0  0  0  0  0  0  0
  -46.0544   66.7389   -8.3414 C   0  0  0  0  0  0  0  0  0  0  0  0
  -46.4220   66.2417   -7.2492 O   0  0  0  0  0  0  0  0  0  0  0  0
  -45.4504   66.0718   -9.2113 O   0  0  0  0  0  0  0  0  0  0  0  0
  -45.1910   66.4765  -10.0156 H   0  0  0  0  0  0  0  0  0  0  0  0
  -50.5185   69.5080  -13.0251 C   0  0  0  0  0  0  0  0  0  0  0  0
  -51.6517   70.3927  -13.2402 C   0  0  0  0  0  0  0  0  0  0  0  0
  -52.0473   71.3163  -12.2729 C   0  0  0  0  0  0  0  0  0  0  0  0
  -51.3423   71.4351  -11.0087 C   0  0  0  0  0  0  0  0  0  0  0  0
  -52.1689   71.9965   -9.9486 C   0  0  0  0  0  0  0  0  0  0  0  0
  -51.5969   72.4480   -8.7591 C   0  0  0  0  0  0  0  0  0  0  0  0
  -50.1639   72.3643   -8.5496 C   0  0  0  0  0  0  0  0  0  0  0  0
  -49.7852   72.0647   -7.1037 C   0  0  0  0  0  0  0  0  0  0  0  0
  -48.2954   72.2526   -6.8795 C   0  0  0  0  0  0  0  0  0  0  0  0
  -47.8204   71.5098   -5.6403 C   0  0  0  0  0  0  0  0  0  0  0  0
  -46.3136   71.4755   -5.5810 C   0  0  0  0  0  0  0  0  0  0  0  0
  9  8  1  0  0  0
  9 10  2  0  0  0
  9 11  1  0  0  0
  8  7  1  0  0  0
  7  6  1  0  0  0
  6  4  1  0  0  0
  4  5  2  0  0  0
  5  3  1  0  0  0
  3  1  1  0  0  0
  1  2  2  0  0  0
  2 13  1  0  0  0
 13 14  1  0  0  0
 14 15  2  0  0  0
 15 16  1  0  0  0
 16 17  1  0  0  0
 17 18  2  0  0  0
 18 19  1  0  0  0
 19 20  1  0  0  0
 20 21  1  0  0  0
 21 22  1  0  0  0
 22 23  1  0  0  0
 11 12  1  0  0  0
M  END
> <minimizedAffinity>
-5.52092

$$$$
1ADL_ACD_A_135


 23 22  0  0  0  0  0  0  0  0999 V2000
  -49.2017   72.2156   -6.0574 C   0  0  0  0  0  0  0  0  0  0  0  0
  -50.1117   72.4869   -7.0733 C   0  0  0  0  0  0  0  0  0  0  0  0
  -47.8794   71.7057   -6.3628 C   0  0  0  0  0  0  0  0  0  0  0  0
  -46.0342   70.4659   -5.2808 C   0  0  0  0  0  0  0  0  0  0  0  0
  -47.1441   71.2963   -5.1790 C   0  0  0  0  0  0  0  0  0  0  0  0
  -45.5912   69.9954   -6.5754 C   0  0  0  0  0  0  0  0  0  0  0  0
  -45.9755   68.5527   -6.8462 C   0  0  0  0  0  0  0  0  0  0  0  0
  -45.3197   68.0593   -8.1178 C   0  0  0  0  0  0  0  0  0  0  0  0
  -45.6113   66.6124   -8.4133 C   0  0  0  0  0  0  0  0  0  0  0  0
  -46.6136   66.0598   -7.8983 O   0  0  0  0  0  0  0  0  0  0  0  0
  -44.8231   65.9999   -9.1684 O   0  0  0  0  0  0  0  0  0  0  0  0
  -44.0846   66.4450   -9.5351 H   0  0  0  0  0  0  0  0  0  0  0  0
  -49.7691   72.2693   -8.4710 C   0  0  0  0  0  0  0  0  0  0  0  0
  -50.6999   71.3803   -9.1466 C   0  0  0  0  0  0  0  0  0  0  0  0
  -50.3845   70.0430   -9.3863 C   0  0  0  0  0  0  0  0  0  0  0  0
  -49.1124   69.4802   -8.9692 C   0  0  0  0  0  0  0  0  0  0  0  0
  -48.1233   69.4589  -10.0386 C   0  0  0  0  0  0  0  0  0  0  0  0
  -47.9137   68.3062  -10.7958 C   0  0  0  0  0  0  0  0  0  0  0  0
  -48.6746   67.0998  -10.5316 C   0  0  0  0  0  0  0  0  0  0  0  0
  -49.5019   66.6384  -11.7260 C   0  0  0  0  0  0  0  0  0  0  0  0
  -50.8436   67.3476  -11.7673 C   0  0  0  0  0  0  0  0  0  0  0  0
  -51.0803   68.0143  -13.1136 C   0  0  0  0  0  0  0  0  0  0  0  0
  -50.6017   69.4446  -13.0947 C   0  0  0  0  0  0  0  0  0  0  0  0
  9  8  1  0  0  0
  9 10  2  0  0  0
  9 11  1  0  0  0
  8  7  1  0  0  0
  7  6  1  0  0  0
  6  4  1  0  0  0
  4  5  2  0  0  0
  5  3  1  0  0  0
  3  1  1  0  0  0
  1  2  2  0  0  0
  2 13  1  0  0  0
 13 14  1  0  0  0
 14 15  2  0  0  0
 15 16  1  0  0  0
 16 17  1  0  0  0
 17 18  2  0  0  0
 18 19  1  0  0  0
 19 20  1  0  0  0
 20 21  1  0  0  0
 21 22  1  0  0  0
 22 23  1  0  0  0
 11 12  1  0  0  0
M  END
> <minimizedAffinity>
-5.50537

$$$$
1ADL_ACD_A_135


 23 22  0  0  0  0  0  0  0  0999 V2000
  -46.0913   69.7056  -11.0127 C   0  0  0  0  0  0  0  0  0  0  0  0
  -46.9189   68.8207  -10.3301 C   0  0  0  0  0  0  0  0  0  0  0  0
  -45.0468   70.4310  -10.3168 C   0  0  0  0  0  0  0  0  0  0  0  0
  -45.2926   72.8473   -9.8548 C   0  0  0  0  0  0  0  0  0  0  0  0
  -44.9533   71.8208  -10.7282 C   0  0  0  0  0  0  0  0  0  0  0  0
  -45.7453   72.5449   -8.5141 C   0  0  0  0  0  0  0  0  0  0  0  0
  -44.7693   72.9938   -7.4425 C   0  0  0  0  0  0  0  0  0  0  0  0
  -43.6433   71.9930   -7.2985 C   0  0  0  0  0  0  0  0  0  0  0  0
  -42.3556   72.4537   -7.9275 C   0  0  0  0  0  0  0  0  0  0  0  0
  -41.8346   71.7790   -8.8487 O   0  0  0  0  0  0  0  0  0  0  0  0
  -41.8376   73.5073   -7.4937 O   0  0  0  0  0  0  0  0  0  0  0  0
  -42.2552   73.9854   -6.8045 H   0  0  0  0  0  0  0  0  0  0  0  0
  -46.7651   68.5939   -8.9007 C   0  0  0  0  0  0  0  0  0  0  0  0
  -47.7073   69.3629   -8.1044 C   0  0  0  0  0  0  0  0  0  0  0  0
  -47.3880   69.7968   -6.8179 C   0  0  0  0  0  0  0  0  0  0  0  0
  -46.0987   69.5002   -6.2188 C   0  0  0  0  0  0  0  0  0  0  0  0
  -46.2041   68.6651   -5.0298 C   0  0  0  0  0  0  0  0  0  0  0  0
  -45.7680   67.3402   -5.0457 C   0  0  0  0  0  0  0  0  0  0  0  0
  -45.2026   66.7625   -6.2502 C   0  0  0  0  0  0  0  0  0  0  0  0
  -43.7225   66.4233   -6.1156 C   0  0  0  0  0  0  0  0  0  0  0  0
  -42.8549   67.6233   -6.4503 C   0  0  0  0  0  0  0  0  0  0  0  0
  -43.1812   68.1801   -7.8274 C   0  0  0  0  0  0  0  0  0  0  0  0
  -42.6814   67.2572   -8.9107 C   0  0  0  0  0  0  0  0  0  0  0  0
  9  8  1  0  0  0
  9 10  2  0  0  0
  9 11  1  0  0  0
  8  7  1  0  0  0
  7  6  1  0  0  0
  6  4  1  0  0  0
  4  5  2  0  0  0
  5  3  1  0  0  0
  3  1  1  0  0  0
  1  2  2  0  0  0
  2 13  1  0  0  0
 13 14  1  0  0  0
 14 15  2  0  0  0
 15 16  1  0  0  0
 16 17  1  0  0  0
 17 18  2  0  0  0
 18 19  1  0  0  0
 19 20  1  0  0  0
 20 21  1  0  0  0
 21 22  1  0  0  0
 22 23  1  0  0  0
 11 12  1  0  0  0
M  END
> <minimizedAffinity>
-5.48447

$$$$
1ADL_ACD_A_135


 23 22  0  0  0  0  0  0  0  0999 V2000
  -52.0118   71.8950  -10.8369 C   0  0  0  0  0  0  0  0  0  0  0  0
  -52.0585   71.0239  -11.9198 C   0  0  0  0  0  0  0  0  0  0  0  0
  -51.0839   71.6724   -9.7456 C   0  0  0  0  0  0  0  0  0  0  0  0
  -50.3651   72.6394   -7.5867 C   0  0  0  0  0  0  0  0  0  0  0  0
  -51.1068   72.7373   -8.7580 C   0  0  0  0  0  0  0  0  0  0  0  0
  -49.5530   71.4691   -7.3328 C   0  0  0  0  0  0  0  0  0  0  0  0
  -48.1239   71.8090   -6.9525 C   0  0  0  0  0  0  0  0  0  0  0  0
  -47.2271   71.7673   -8.1708 C   0  0  0  0  0  0  0  0  0  0  0  0
  -46.7315   73.1256   -8.5899 C   0  0  0  0  0  0  0  0  0  0  0  0
  -46.9056   74.1135   -7.8357 O   0  0  0  0  0  0  0  0  0  0  0  0
  -46.1620   73.2227   -9.7002 O   0  0  0  0  0  0  0  0  0  0  0  0
  -46.0495   72.4630  -10.2370 H   0  0  0  0  0  0  0  0  0  0  0  0
  -51.1815   69.8647  -11.9941 C   0  0  0  0  0  0  0  0  0  0  0  0
  -50.6411   69.6525  -13.3267 C   0  0  0  0  0  0  0  0  0  0  0  0
  -49.4542   68.9476  -13.5265 C   0  0  0  0  0  0  0  0  0  0  0  0
  -48.7077   68.3934  -12.4109 C   0  0  0  0  0  0  0  0  0  0  0  0
  -48.6618   66.9374  -12.4261 C   0  0  0  0  0  0  0  0  0  0  0  0
  -49.5278   66.1864  -11.6311 C   0  0  0  0  0  0  0  0  0  0  0  0
  -50.4921   66.8402  -10.7669 C   0  0  0  0  0  0  0  0  0  0  0  0
  -50.0459   66.9053   -9.3107 C   0  0  0  0  0  0  0  0  0  0  0  0
  -49.4002   68.2430   -8.9969 C   0  0  0  0  0  0  0  0  0  0  0  0
  -48.0882   68.0664   -8.2481 C   0  0  0  0  0  0  0  0  0  0  0  0
  -47.1464   67.1762   -9.0200 C   0  0  0  0  0  0  0  0  0  0  0  0
  9  8  1  0  0  0
  9 10  2  0  0  0
  9 11  1  0  0  0
  8  7  1  0  0  0
  7  6  1  0  0  0
  6  4  1  0  0  0
  4  5  2  0  0  0
  5  3  1  0  0  0
  3  1  1  0  0  0
  1  2  2  0  0  0
  2 13  1  0  0  0
 13 14  1  0  0  0
 14 15  2  0  0  0
 15 16  1  0  0  0
 16 17  1  0  0  0
 17 18  2  0  0  0
 18 19  1  0  0  0
 19 20  1  0  0  0
 20 21  1  0  0  0
 21 22  1  0  0  0
 22 23  1  0  0  0
 11 12  1  0  0  0
M  END
> <minimizedAffinity>
-5.48109

$$$$
1ADL_ACD_A_135


 23 22  0  0  0  0  0  0  0  0999 V2000
  -50.8295   72.5884   -8.1471 C   0  0  0  0  0  0  0  0  0  0  0  0
  -50.4053   73.2045   -6.9748 C   0  0  0  0  0  0  0  0  0  0  0  0
  -50.5052   71.2012   -8.4151 C   0  0  0  0  0  0  0  0  0  0  0  0
  -50.2881   69.5905  -10.2782 C   0  0  0  0  0  0  0  0  0  0  0  0
  -50.4496   70.8977   -9.8344 C   0  0  0  0  0  0  0  0  0  0  0  0
  -50.1737   68.5059   -9.3273 C   0  0  0  0  0  0  0  0  0  0  0  0
  -50.3081   67.1373   -9.9686 C   0  0  0  0  0  0  0  0  0  0  0  0
  -48.9861   66.6964  -10.5587 C   0  0  0  0  0  0  0  0  0  0  0  0
  -48.9672   66.7296  -12.0636 C   0  0  0  0  0  0  0  0  0  0  0  0
  -47.8766   66.6281  -12.6765 O   0  0  0  0  0  0  0  0  0  0  0  0
  -50.0594   66.8692  -12.6587 O   0  0  0  0  0  0  0  0  0  0  0  0
  -50.8543   66.9418  -12.1680 H   0  0  0  0  0  0  0  0  0  0  0  0
  -49.6252   72.4809   -5.9818 C   0  0  0  0  0  0  0  0  0  0  0  0
  -48.2588   72.9657   -5.8773 C   0  0  0  0  0  0  0  0  0  0  0  0
  -47.1702   72.1370   -6.1483 C   0  0  0  0  0  0  0  0  0  0  0  0
  -47.3553   70.7533   -6.5486 C   0  0  0  0  0  0  0  0  0  0  0  0
  -46.7092   69.8100   -5.6458 C   0  0  0  0  0  0  0  0  0  0  0  0
  -46.6492   68.4510   -5.9548 C   0  0  0  0  0  0  0  0  0  0  0  0
  -47.2336   67.9457   -7.1825 C   0  0  0  0  0  0  0  0  0  0  0  0
  -46.2433   67.1701   -8.0438 C   0  0  0  0  0  0  0  0  0  0  0  0
  -45.6191   68.0659   -9.0987 C   0  0  0  0  0  0  0  0  0  0  0  0
  -46.5778   69.1621   -9.5372 C   0  0  0  0  0  0  0  0  0  0  0  0
  -46.4255   69.4494  -11.0100 C   0  0  0  0  0  0  0  0  0  0  0  0
  9  8  1  0  0  0
  9 10  2  0  0  0
  9 11  1  0  0  0
  8  7  1  0  0  0
  7  6  1  0  0  0
  6  4  1  0  0  0
  4  5  2  0  0  0
  5  3  1  0  0  0
  3  1  1  0  0  0
  1  2  2  0  0  0
  2 13  1  0  0  0
 13 14  1  0  0  0
 14 15  2  0  0  0
 15 16  1  0  0  0
 16 17  1  0  0  0
 17 18  2  0  0  0
 18 19  1  0  0  0
 19 20  1  0  0  0
 20 21  1  0  0  0
 21 22  1  0  0  0
 22 23  1  0  0  0
 11 12  1  0  0  0
M  END
> <minimizedAffinity>
-5.46900

$$$$
