24
{'a': 8.35930, 'b': 4.97250, 'c': 6.19750, 'alpha': 90, 'beta': 114.83, 'gamma': 90.0, 'xi': 8.35930, 'xj': 0.0, 'xk': 0.0, 'yi': 0.0, 'yj': 4.97250, 'yk': 0.0, 'zi': -2.60250, 'zj': 0.0, 'zk': 5.62459}
Li        -0.52892        2.22967        4.69316
C         -0.65063        0.32669        1.40615
O         -0.65063        1.59766        1.40615
O          0.40582        4.65675        1.75881
Li         4.98447        2.22967        3.74373
Li         6.28572        2.74283        0.93143
Li         0.77233        2.74283        1.88086
Li         3.65073        4.71592        4.69316
Li         0.80482        4.71592        3.74373
Li         2.10607        0.25658        0.93143
Li         4.95198        0.25658        1.88086
C         -1.95188        4.64581        4.21844
C          3.52902        2.81294        1.40615
C          2.22777        2.15956        4.21844
O         -1.95188        3.37484        4.21844
O          3.52902        4.08391        1.40615
O          2.22777        0.88859        4.21844
O          6.65223        4.65675        1.05349
O          5.35098        0.31575        3.86578
O         -0.89543        0.31575        4.57110
O          4.58547        2.17050        1.75881
O          2.47258        2.17050        1.05349
O          1.17133        2.80200        3.86578
O          3.28422        2.80200        4.57110
