1AJP_OMD_A_210


 15 15  0  0  0  0  0  0  0  0999 V2000
   11.7582   35.5437   34.6521 C   0  0  0  0  0  0  0  0  0  0  0  0
   11.8248   36.3540   33.5233 C   0  0  0  0  0  0  0  0  0  0  0  0
   10.7343   36.4208   32.6886 C   0  0  0  0  0  0  0  0  0  0  0  0
   10.6505   37.1730   31.5402 O   0  0  0  0  0  0  0  0  0  0  0  0
    9.5532   35.7192   32.9093 C   0  0  0  0  0  0  0  0  0  0  0  0
    9.4910   34.9282   34.0254 C   0  0  0  0  0  0  0  0  0  0  0  0
   10.5842   34.8327   34.8617 C   0  0  0  0  0  0  0  0  0  0  0  0
   10.4356   34.1611   35.7107 O   0  0  0  0  0  0  0  0  0  0  0  0
   11.3781   37.6978   31.2698 H   0  0  0  0  0  0  0  0  0  0  0  0
   11.1243   34.0331   36.3330 H   0  0  0  0  0  0  0  0  0  0  0  0
   12.9363   35.4596   35.5917 C   0  0  0  0  0  0  0  0  0  0  0  0
   13.9693   36.5844   35.4243 C   0  0  0  0  0  0  0  0  0  0  0  0
   13.6277   37.7548   35.5441 O   0  0  0  0  0  0  0  0  0  0  0  0
   15.1425   36.3525   35.1234 O   0  0  0  0  0  0  0  0  0  0  0  0
   15.4346   35.4677   35.0243 H   0  0  0  0  0  0  0  0  0  0  0  0
 12 11  1  0  0  0
 12 13  2  0  0  0
 12 14  1  0  0  0
 11  1  1  0  0  0
  1  2  2  0  0  0
  1  7  1  0  0  0
  2  3  1  0  0  0
  3  4  1  0  0  0
  3  5  2  0  0  0
  5  6  1  0  0  0
  6  7  2  0  0  0
  7  8  1  0  0  0
  4  9  1  0  0  0
  8 10  1  0  0  0
 14 15  1  0  0  0
M  END
> <minimizedAffinity>
-6.52221

$$$$
1AJP_OMD_A_210


 15 15  0  0  0  0  0  0  0  0999 V2000
   11.0607   35.7322   34.0067 C   0  0  0  0  0  0  0  0  0  0  0  0
   12.1126   36.6270   33.8395 C   0  0  0  0  0  0  0  0  0  0  0  0
   13.1852   36.5587   34.6971 C   0  0  0  0  0  0  0  0  0  0  0  0
   14.2937   37.3720   34.6584 O   0  0  0  0  0  0  0  0  0  0  0  0
   13.2832   35.6355   35.7334 C   0  0  0  0  0  0  0  0  0  0  0  0
   12.2477   34.7530   35.8892 C   0  0  0  0  0  0  0  0  0  0  0  0
   11.1538   34.8222   35.0512 C   0  0  0  0  0  0  0  0  0  0  0  0
   10.3775   34.0862   35.2738 O   0  0  0  0  0  0  0  0  0  0  0  0
   14.3605   38.0422   34.0070 H   0  0  0  0  0  0  0  0  0  0  0  0
    9.5967   34.0579   34.7566 H   0  0  0  0  0  0  0  0  0  0  0  0
    9.8756   35.7773   33.0733 C   0  0  0  0  0  0  0  0  0  0  0  0
   10.2326   35.6883   31.5817 C   0  0  0  0  0  0  0  0  0  0  0  0
   10.3561   34.5946   31.0439 O   0  0  0  0  0  0  0  0  0  0  0  0
   10.4483   36.6944   30.9019 O   0  0  0  0  0  0  0  0  0  0  0  0
   10.3623   37.5455   31.2843 H   0  0  0  0  0  0  0  0  0  0  0  0
 12 11  1  0  0  0
 12 13  2  0  0  0
 12 14  1  0  0  0
 11  1  1  0  0  0
  1  2  2  0  0  0
  1  7  1  0  0  0
  2  3  1  0  0  0
  3  4  1  0  0  0
  3  5  2  0  0  0
  5  6  1  0  0  0
  6  7  2  0  0  0
  7  8  1  0  0  0
  4  9  1  0  0  0
  8 10  1  0  0  0
 14 15  1  0  0  0
M  END
> <minimizedAffinity>
-6.44833

$$$$
1AJP_OMD_A_210


 15 15  0  0  0  0  0  0  0  0999 V2000
   12.7888   36.3362   34.7784 C   0  0  0  0  0  0  0  0  0  0  0  0
   11.9421   36.6246   33.7130 C   0  0  0  0  0  0  0  0  0  0  0  0
   10.8105   35.8631   33.5391 C   0  0  0  0  0  0  0  0  0  0  0  0
    9.8827   36.0258   32.5370 O   0  0  0  0  0  0  0  0  0  0  0  0
   10.4567   34.8099   34.3766 C   0  0  0  0  0  0  0  0  0  0  0  0
   11.2905   34.5347   35.4275 C   0  0  0  0  0  0  0  0  0  0  0  0
   12.4415   35.2749   35.6034 C   0  0  0  0  0  0  0  0  0  0  0  0
   13.0441   34.9609   36.4590 O   0  0  0  0  0  0  0  0  0  0  0  0
    9.9965   36.7020   31.8985 H   0  0  0  0  0  0  0  0  0  0  0  0
   13.8445   35.4060   36.6570 H   0  0  0  0  0  0  0  0  0  0  0  0
   14.0322   37.1625   34.9996 C   0  0  0  0  0  0  0  0  0  0  0  0
   13.9235   38.1898   36.1367 C   0  0  0  0  0  0  0  0  0  0  0  0
   14.0666   37.8353   37.3005 O   0  0  0  0  0  0  0  0  0  0  0  0
   13.6475   39.3725   35.9224 O   0  0  0  0  0  0  0  0  0  0  0  0
   13.5316   39.6747   35.0431 H   0  0  0  0  0  0  0  0  0  0  0  0
 12 11  1  0  0  0
 12 13  2  0  0  0
 12 14  1  0  0  0
 11  1  1  0  0  0
  1  2  2  0  0  0
  1  7  1  0  0  0
  2  3  1  0  0  0
  3  4  1  0  0  0
  3  5  2  0  0  0
  5  6  1  0  0  0
  6  7  2  0  0  0
  7  8  1  0  0  0
  4  9  1  0  0  0
  8 10  1  0  0  0
 14 15  1  0  0  0
M  END
> <minimizedAffinity>
-6.17340

$$$$
1AJP_OMD_A_210


 15 15  0  0  0  0  0  0  0  0999 V2000
   12.5881   36.0407   34.7576 C   0  0  0  0  0  0  0  0  0  0  0  0
   12.1218   35.0952   35.6652 C   0  0  0  0  0  0  0  0  0  0  0  0
   10.8826   34.5350   35.4627 C   0  0  0  0  0  0  0  0  0  0  0  0
   10.2888   33.5929   36.2698 O   0  0  0  0  0  0  0  0  0  0  0  0
   10.0582   34.8599   34.3900 C   0  0  0  0  0  0  0  0  0  0  0  0
   10.5252   35.7865   33.4963 C   0  0  0  0  0  0  0  0  0  0  0  0
   11.7571   36.3746   33.6967 C   0  0  0  0  0  0  0  0  0  0  0  0
   12.0249   37.1126   32.9369 O   0  0  0  0  0  0  0  0  0  0  0  0
   10.7348   33.2812   37.0326 H   0  0  0  0  0  0  0  0  0  0  0  0
   12.8442   37.5642   32.9906 H   0  0  0  0  0  0  0  0  0  0  0  0
   13.9492   36.6641   34.9492 C   0  0  0  0  0  0  0  0  0  0  0  0
   13.9881   37.8148   35.9663 C   0  0  0  0  0  0  0  0  0  0  0  0
   14.2004   37.5813   37.1500 O   0  0  0  0  0  0  0  0  0  0  0  0
   13.7647   38.9824   35.6384 O   0  0  0  0  0  0  0  0  0  0  0  0
   13.5986   39.1934   34.7407 H   0  0  0  0  0  0  0  0  0  0  0  0
 12 11  1  0  0  0
 12 13  2  0  0  0
 12 14  1  0  0  0
 11  1  1  0  0  0
  1  2  2  0  0  0
  1  7  1  0  0  0
  2  3  1  0  0  0
  3  4  1  0  0  0
  3  5  2  0  0  0
  5  6  1  0  0  0
  6  7  2  0  0  0
  7  8  1  0  0  0
  4  9  1  0  0  0
  8 10  1  0  0  0
 14 15  1  0  0  0
M  END
> <minimizedAffinity>
-6.07717

$$$$
1AJP_OMD_A_210


 15 15  0  0  0  0  0  0  0  0999 V2000
   12.6753   35.4876   35.1192 C   0  0  0  0  0  0  0  0  0  0  0  0
   11.4913   34.7603   35.0551 C   0  0  0  0  0  0  0  0  0  0  0  0
   10.5601   35.0905   34.0989 C   0  0  0  0  0  0  0  0  0  0  0  0
    9.3482   34.4673   33.9132 O   0  0  0  0  0  0  0  0  0  0  0  0
   10.7346   36.1199   33.1793 C   0  0  0  0  0  0  0  0  0  0  0  0
   11.9048   36.8283   33.2430 C   0  0  0  0  0  0  0  0  0  0  0  0
   12.8402   36.5243   34.2105 C   0  0  0  0  0  0  0  0  0  0  0  0
   13.7274   37.1615   34.1852 O   0  0  0  0  0  0  0  0  0  0  0  0
    9.0993   33.7527   34.4659 H   0  0  0  0  0  0  0  0  0  0  0  0
   14.4173   37.0291   34.8053 H   0  0  0  0  0  0  0  0  0  0  0  0
   13.7198   35.1401   36.1518 C   0  0  0  0  0  0  0  0  0  0  0  0
   13.6672   35.9947   37.4273 C   0  0  0  0  0  0  0  0  0  0  0  0
   14.0674   37.1523   37.4080 O   0  0  0  0  0  0  0  0  0  0  0  0
   13.2719   35.5376   38.5024 O   0  0  0  0  0  0  0  0  0  0  0  0
   12.9596   34.6554   38.5499 H   0  0  0  0  0  0  0  0  0  0  0  0
 12 11  1  0  0  0
 12 13  2  0  0  0
 12 14  1  0  0  0
 11  1  1  0  0  0
  1  2  2  0  0  0
  1  7  1  0  0  0
  2  3  1  0  0  0
  3  4  1  0  0  0
  3  5  2  0  0  0
  5  6  1  0  0  0
  6  7  2  0  0  0
  7  8  1  0  0  0
  4  9  1  0  0  0
  8 10  1  0  0  0
 14 15  1  0  0  0
M  END
> <minimizedAffinity>
-5.99664

$$$$
1AJP_OMD_A_210


 15 15  0  0  0  0  0  0  0  0999 V2000
   13.5603   35.3400   36.1219 C   0  0  0  0  0  0  0  0  0  0  0  0
   14.8436   35.5739   35.6386 C   0  0  0  0  0  0  0  0  0  0  0  0
   15.8110   36.0159   36.5101 C   0  0  0  0  0  0  0  0  0  0  0  0
   17.1182   36.2905   36.1822 O   0  0  0  0  0  0  0  0  0  0  0  0
   15.5804   36.2441   37.8630 C   0  0  0  0  0  0  0  0  0  0  0  0
   14.3169   36.0061   38.3344 C   0  0  0  0  0  0  0  0  0  0  0  0
   13.3289   35.5834   37.4691 C   0  0  0  0  0  0  0  0  0  0  0  0
   12.3548   35.4420   37.9434 O   0  0  0  0  0  0  0  0  0  0  0  0
   17.4130   36.1798   35.2997 H   0  0  0  0  0  0  0  0  0  0  0  0
   11.6226   35.1561   37.4335 H   0  0  0  0  0  0  0  0  0  0  0  0
   12.4815   34.8442   35.1902 C   0  0  0  0  0  0  0  0  0  0  0  0
   11.6769   35.9535   34.4957 C   0  0  0  0  0  0  0  0  0  0  0  0
   12.1624   37.0697   34.3573 O   0  0  0  0  0  0  0  0  0  0  0  0
   10.5212   35.7732   34.1046 O   0  0  0  0  0  0  0  0  0  0  0  0
   10.1216   34.9307   34.1964 H   0  0  0  0  0  0  0  0  0  0  0  0
 12 11  1  0  0  0
 12 13  2  0  0  0
 12 14  1  0  0  0
 11  1  1  0  0  0
  1  2  2  0  0  0
  1  7  1  0  0  0
  2  3  1  0  0  0
  3  4  1  0  0  0
  3  5  2  0  0  0
  5  6  1  0  0  0
  6  7  2  0  0  0
  7  8  1  0  0  0
  4  9  1  0  0  0
  8 10  1  0  0  0
 14 15  1  0  0  0
M  END
> <minimizedAffinity>
-5.96321

$$$$
1AJP_OMD_A_210


 15 15  0  0  0  0  0  0  0  0999 V2000
   13.0384   35.7342   35.6656 C   0  0  0  0  0  0  0  0  0  0  0  0
   12.8085   35.2447   36.9473 C   0  0  0  0  0  0  0  0  0  0  0  0
   13.4884   35.8040   38.0035 C   0  0  0  0  0  0  0  0  0  0  0  0
   13.3687   35.4283   39.3212 O   0  0  0  0  0  0  0  0  0  0  0  0
   14.4021   36.8441   37.8653 C   0  0  0  0  0  0  0  0  0  0  0  0
   14.6195   37.3262   36.6021 C   0  0  0  0  0  0  0  0  0  0  0  0
   13.9621   36.7616   35.5285 C   0  0  0  0  0  0  0  0  0  0  0  0
   14.2219   37.2073   34.5653 O   0  0  0  0  0  0  0  0  0  0  0  0
   12.7845   34.7356   39.5596 H   0  0  0  0  0  0  0  0  0  0  0  0
   13.8246   36.8881   33.7790 H   0  0  0  0  0  0  0  0  0  0  0  0
   12.2982   35.1464   34.4890 C   0  0  0  0  0  0  0  0  0  0  0  0
   11.1275   36.0004   33.9787 C   0  0  0  0  0  0  0  0  0  0  0  0
   11.3400   37.1001   33.4825 O   0  0  0  0  0  0  0  0  0  0  0  0
    9.9554   35.6342   34.0924 O   0  0  0  0  0  0  0  0  0  0  0  0
    9.7600   34.7983   34.4679 H   0  0  0  0  0  0  0  0  0  0  0  0
 12 11  1  0  0  0
 12 13  2  0  0  0
 12 14  1  0  0  0
 11  1  1  0  0  0
  1  2  2  0  0  0
  1  7  1  0  0  0
  2  3  1  0  0  0
  3  4  1  0  0  0
  3  5  2  0  0  0
  5  6  1  0  0  0
  6  7  2  0  0  0
  7  8  1  0  0  0
  4  9  1  0  0  0
  8 10  1  0  0  0
 14 15  1  0  0  0
M  END
> <minimizedAffinity>
-5.94242

$$$$
1AJP_OMD_A_210


 15 15  0  0  0  0  0  0  0  0999 V2000
   15.1067   38.3301   37.0026 C   0  0  0  0  0  0  0  0  0  0  0  0
   14.0628   38.3099   36.0834 C   0  0  0  0  0  0  0  0  0  0  0  0
   13.7259   37.1175   35.4872 C   0  0  0  0  0  0  0  0  0  0  0  0
   12.7231   36.9403   34.5629 O   0  0  0  0  0  0  0  0  0  0  0  0
   14.3735   35.9152   35.7533 C   0  0  0  0  0  0  0  0  0  0  0  0
   15.3961   35.9399   36.6638 C   0  0  0  0  0  0  0  0  0  0  0  0
   15.7614   37.1320   37.2547 C   0  0  0  0  0  0  0  0  0  0  0  0
   16.5998   37.0436   37.9498 O   0  0  0  0  0  0  0  0  0  0  0  0
   12.2030   37.6704   34.2900 H   0  0  0  0  0  0  0  0  0  0  0  0
   16.9179   37.8020   38.3989 H   0  0  0  0  0  0  0  0  0  0  0  0
   15.4910   39.6227   37.6803 C   0  0  0  0  0  0  0  0  0  0  0  0
   16.2720   40.6029   36.7919 C   0  0  0  0  0  0  0  0  0  0  0  0
   15.9154   41.7718   36.7059 O   0  0  0  0  0  0  0  0  0  0  0  0
   17.2361   40.2413   36.1132 O   0  0  0  0  0  0  0  0  0  0  0  0
   17.5331   39.3537   36.1569 H   0  0  0  0  0  0  0  0  0  0  0  0
 12 11  1  0  0  0
 12 13  2  0  0  0
 12 14  1  0  0  0
 11  1  1  0  0  0
  1  2  2  0  0  0
  1  7  1  0  0  0
  2  3  1  0  0  0
  3  4  1  0  0  0
  3  5  2  0  0  0
  5  6  1  0  0  0
  6  7  2  0  0  0
  7  8  1  0  0  0
  4  9  1  0  0  0
  8 10  1  0  0  0
 14 15  1  0  0  0
M  END
> <minimizedAffinity>
-5.91997

$$$$
1AJP_OMD_A_210


 15 15  0  0  0  0  0  0  0  0999 V2000
   13.7188   35.5613   36.6192 C   0  0  0  0  0  0  0  0  0  0  0  0
   12.8467   35.3001   37.6711 C   0  0  0  0  0  0  0  0  0  0  0  0
   13.2855   35.4901   38.9602 C   0  0  0  0  0  0  0  0  0  0  0  0
   12.5435   35.2746   40.0980 O   0  0  0  0  0  0  0  0  0  0  0  0
   14.5646   35.9352   39.2790 C   0  0  0  0  0  0  0  0  0  0  0  0
   15.4166   36.1969   38.2393 C   0  0  0  0  0  0  0  0  0  0  0  0
   14.9995   35.9905   36.9405 C   0  0  0  0  0  0  0  0  0  0  0  0
   15.7619   36.2112   36.1896 O   0  0  0  0  0  0  0  0  0  0  0  0
   11.6593   34.9718   40.0304 H   0  0  0  0  0  0  0  0  0  0  0  0
   15.5690   36.1002   35.2794 H   0  0  0  0  0  0  0  0  0  0  0  0
   13.2604   35.3718   35.1938 C   0  0  0  0  0  0  0  0  0  0  0  0
   13.0918   36.6748   34.3977 C   0  0  0  0  0  0  0  0  0  0  0  0
   11.9808   37.1734   34.2639 O   0  0  0  0  0  0  0  0  0  0  0  0
   14.0435   37.2252   33.8389 O   0  0  0  0  0  0  0  0  0  0  0  0
   14.9058   36.8682   33.9221 H   0  0  0  0  0  0  0  0  0  0  0  0
 12 11  1  0  0  0
 12 13  2  0  0  0
 12 14  1  0  0  0
 11  1  1  0  0  0
  1  2  2  0  0  0
  1  7  1  0  0  0
  2  3  1  0  0  0
  3  4  1  0  0  0
  3  5  2  0  0  0
  5  6  1  0  0  0
  6  7  2  0  0  0
  7  8  1  0  0  0
  4  9  1  0  0  0
  8 10  1  0  0  0
 14 15  1  0  0  0
M  END
> <minimizedAffinity>
-5.91056

$$$$
1AJP_OMD_A_210


 15 15  0  0  0  0  0  0  0  0999 V2000
   14.8351   38.6515   37.6550 C   0  0  0  0  0  0  0  0  0  0  0  0
   14.2896   38.6079   36.3760 C   0  0  0  0  0  0  0  0  0  0  0  0
   13.9209   37.3912   35.8525 C   0  0  0  0  0  0  0  0  0  0  0  0
   13.3719   37.1889   34.6078 O   0  0  0  0  0  0  0  0  0  0  0  0
   14.0607   36.1867   36.5347 C   0  0  0  0  0  0  0  0  0  0  0  0
   14.5922   36.2364   37.7958 C   0  0  0  0  0  0  0  0  0  0  0  0
   14.9879   37.4465   38.3275 C   0  0  0  0  0  0  0  0  0  0  0  0
   15.4157   37.3715   39.3301 O   0  0  0  0  0  0  0  0  0  0  0  0
   13.2212   37.9175   34.0382 H   0  0  0  0  0  0  0  0  0  0  0  0
   15.7126   38.1428   39.7716 H   0  0  0  0  0  0  0  0  0  0  0  0
   15.2387   39.9744   38.2590 C   0  0  0  0  0  0  0  0  0  0  0  0
   16.1972   40.8066   37.3935 C   0  0  0  0  0  0  0  0  0  0  0  0
   17.3778   40.4912   37.3075 O   0  0  0  0  0  0  0  0  0  0  0  0
   15.8269   41.8259   36.8064 O   0  0  0  0  0  0  0  0  0  0  0  0
   14.9302   42.0937   36.8528 H   0  0  0  0  0  0  0  0  0  0  0  0
 12 11  1  0  0  0
 12 13  2  0  0  0
 12 14  1  0  0  0
 11  1  1  0  0  0
  1  2  2  0  0  0
  1  7  1  0  0  0
  2  3  1  0  0  0
  3  4  1  0  0  0
  3  5  2  0  0  0
  5  6  1  0  0  0
  6  7  2  0  0  0
  7  8  1  0  0  0
  4  9  1  0  0  0
  8 10  1  0  0  0
 14 15  1  0  0  0
M  END
> <minimizedAffinity>
-5.72935

$$$$
