1AJX_AH1_A_500


 42 46  0  0  0  0  0  0  0  0999 V2000
   11.5752   23.2553    5.8630 N   0  0  0  0  0  0  0  0  0  0  0  0
   12.0902   21.9382    5.9499 C   0  0  0  0  0  0  0  0  0  0  0  0
   13.3648   21.6534    5.6483 N   0  0  0  0  0  0  0  0  0  0  0  0
   14.4944   22.5723    5.8917 C   0  0  0  0  0  0  0  0  0  0  0  0
   14.5180   23.7573    4.8239 C   0  0  0  0  0  0  0  0  0  0  0  0
   13.3559   24.7773    5.0032 C   0  0  0  0  0  0  0  0  0  0  0  0
   11.9341   24.1997    4.7577 C   0  0  0  0  0  0  0  0  0  0  0  0
   11.3347   20.9952    6.3173 O   0  0  0  0  0  0  0  0  0  0  0  0
   15.6793   24.4631    5.0123 O   0  0  0  0  0  0  0  0  0  0  0  0
   13.5637   25.7825    4.0778 O   0  0  0  0  0  0  0  0  0  0  0  0
   15.6884   24.8378    5.9070 H   0  0  0  0  0  0  0  0  0  0  0  0
   13.5314   25.4099    3.1829 H   0  0  0  0  0  0  0  0  0  0  0  0
   10.2302   23.5156    6.4258 C   0  0  0  0  0  0  0  0  0  0  0  0
   10.1375   24.5405    7.4956 C   0  0  0  0  0  0  0  0  0  0  0  0
   11.2762   24.9477    8.1809 C   0  0  0  0  0  0  0  0  0  0  0  0
   11.1824   25.8902    9.2069 C   0  0  0  0  0  0  0  0  0  0  0  0
    9.9397   26.4362    9.5694 C   0  0  0  0  0  0  0  0  0  0  0  0
    8.8208   26.0205    8.8755 C   0  0  0  0  0  0  0  0  0  0  0  0
    8.9323   25.0659    7.8302 C   0  0  0  0  0  0  0  0  0  0  0  0
   13.7933   20.3051    5.5177 C   0  0  0  0  0  0  0  0  0  0  0  0
   14.3846   19.7785    4.2211 C   0  0  0  0  0  0  0  0  0  0  0  0
   14.2191   20.4813    2.9919 C   0  0  0  0  0  0  0  0  0  0  0  0
   14.8354   19.9803    1.8381 C   0  0  0  0  0  0  0  0  0  0  0  0
   15.6058   18.8158    1.8554 C   0  0  0  0  0  0  0  0  0  0  0  0
   15.7688   18.1018    3.0474 C   0  0  0  0  0  0  0  0  0  0  0  0
   15.1681   18.5738    4.2404 C   0  0  0  0  0  0  0  0  0  0  0  0
   11.8944   23.4073    3.4102 C   0  0  0  0  0  0  0  0  0  0  0  0
   11.2076   24.0338    2.2612 O   0  0  0  0  0  0  0  0  0  0  0  0
    9.8747   24.3500    2.2495 C   0  0  0  0  0  0  0  0  0  0  0  0
    9.4472   25.6396    1.9087 C   0  0  0  0  0  0  0  0  0  0  0  0
    8.0665   25.9732    1.8728 C   0  0  0  0  0  0  0  0  0  0  0  0
    7.0835   25.0093    2.1907 C   0  0  0  0  0  0  0  0  0  0  0  0
    7.5147   23.7097    2.5505 C   0  0  0  0  0  0  0  0  0  0  0  0
    8.9195   23.3941    2.5702 C   0  0  0  0  0  0  0  0  0  0  0  0
   14.3209   23.1786    7.2483 C   0  0  0  0  0  0  0  0  0  0  0  0
   14.6410   22.4318    8.4678 O   0  0  0  0  0  0  0  0  0  0  0  0
   15.7178   21.7226    8.6661 C   0  0  0  0  0  0  0  0  0  0  0  0
   15.6214   20.3936    9.1857 C   0  0  0  0  0  0  0  0  0  0  0  0
   16.8138   19.6580    9.4149 C   0  0  0  0  0  0  0  0  0  0  0  0
   18.0844   20.2432    9.1179 C   0  0  0  0  0  0  0  0  0  0  0  0
   18.1826   21.5514    8.5864 C   0  0  0  0  0  0  0  0  0  0  0  0
   17.0008   22.2865    8.3677 C   0  0  0  0  0  0  0  0  0  0  0  0
  1  2  1  0  0  0
  1  7  1  0  0  0
  1 13  1  0  0  0
  2  3  1  0  0  0
  2  8  2  0  0  0
  3  4  1  0  0  0
  3 20  1  0  0  0
  4  5  1  0  0  0
  4 35  1  0  0  0
  5  6  1  0  0  0
  5  9  1  0  0  0
  6  7  1  0  0  0
  6 10  1  0  0  0
  7 27  1  0  0  0
 13 14  1  0  0  0
 14 15  2  0  0  0
 14 19  1  0  0  0
 15 16  1  0  0  0
 16 17  2  0  0  0
 17 18  1  0  0  0
 18 19  2  0  0  0
 20 21  1  0  0  0
 21 22  2  0  0  0
 21 26  1  0  0  0
 22 23  1  0  0  0
 23 24  2  0  0  0
 24 25  1  0  0  0
 25 26  2  0  0  0
 35 36  1  0  0  0
 36 37  1  0  0  0
 37 38  2  0  0  0
 37 42  1  0  0  0
 38 39  1  0  0  0
 39 40  2  0  0  0
 40 41  1  0  0  0
 41 42  2  0  0  0
 27 28  1  0  0  0
 28 29  1  0  0  0
 29 30  2  0  0  0
 29 34  1  0  0  0
 30 31  1  0  0  0
 31 32  2  0  0  0
 32 33  1  0  0  0
 33 34  2  0  0  0
  9 11  1  0  0  0
 10 12  1  0  0  0
M  END
> <minimizedAffinity>
-12.49986

$$$$
1AJX_AH1_A_500


 42 46  0  0  0  0  0  0  0  0999 V2000
   13.3040   21.6741    5.5130 N   0  0  0  0  0  0  0  0  0  0  0  0
   11.9704   21.9979    5.8655 C   0  0  0  0  0  0  0  0  0  0  0  0
   11.4940   23.2470    5.7677 N   0  0  0  0  0  0  0  0  0  0  0  0
   11.9071   24.2073    4.7253 C   0  0  0  0  0  0  0  0  0  0  0  0
   13.3596   24.7963    5.0227 C   0  0  0  0  0  0  0  0  0  0  0  0
   14.5016   23.7555    4.8346 C   0  0  0  0  0  0  0  0  0  0  0  0
   14.4687   22.5608    5.8282 C   0  0  0  0  0  0  0  0  0  0  0  0
   11.1990   21.0924    6.2896 O   0  0  0  0  0  0  0  0  0  0  0  0
   13.5976   25.7944    4.1119 O   0  0  0  0  0  0  0  0  0  0  0  0
   15.6910   24.4308    5.0329 O   0  0  0  0  0  0  0  0  0  0  0  0
   13.5791   25.4250    3.2152 H   0  0  0  0  0  0  0  0  0  0  0  0
   15.7177   24.7798    5.9376 H   0  0  0  0  0  0  0  0  0  0  0  0
   13.6764   20.2425    5.4384 C   0  0  0  0  0  0  0  0  0  0  0  0
   14.3695   19.7931    4.2050 C   0  0  0  0  0  0  0  0  0  0  0  0
   14.1858   20.4732    3.0068 C   0  0  0  0  0  0  0  0  0  0  0  0
   14.8155   20.0311    1.8415 C   0  0  0  0  0  0  0  0  0  0  0  0
   15.6365   18.8911    1.8567 C   0  0  0  0  0  0  0  0  0  0  0  0
   15.8079   18.2307    3.0570 C   0  0  0  0  0  0  0  0  0  0  0  0
   15.1662   18.6954    4.2353 C   0  0  0  0  0  0  0  0  0  0  0  0
   10.2404   23.5901    6.3415 C   0  0  0  0  0  0  0  0  0  0  0  0
   10.1384   24.5299    7.5308 C   0  0  0  0  0  0  0  0  0  0  0  0
   11.3035   25.0188    8.1911 C   0  0  0  0  0  0  0  0  0  0  0  0
   11.1519   25.9290    9.2450 C   0  0  0  0  0  0  0  0  0  0  0  0
    9.8967   26.3715    9.6674 C   0  0  0  0  0  0  0  0  0  0  0  0
    8.7393   25.8930    9.0439 C   0  0  0  0  0  0  0  0  0  0  0  0
    8.8444   24.9751    7.9700 C   0  0  0  0  0  0  0  0  0  0  0  0
   14.3024   23.0776    7.2945 C   0  0  0  0  0  0  0  0  0  0  0  0
   14.4968   22.1091    8.3939 O   0  0  0  0  0  0  0  0  0  0  0  0
   15.6840   21.4760    8.6514 C   0  0  0  0  0  0  0  0  0  0  0  0
   16.9054   22.1021    8.3716 C   0  0  0  0  0  0  0  0  0  0  0  0
   18.1429   21.4637    8.6539 C   0  0  0  0  0  0  0  0  0  0  0  0
   18.1738   20.1691    9.2192 C   0  0  0  0  0  0  0  0  0  0  0  0
   16.9401   19.5287    9.4882 C   0  0  0  0  0  0  0  0  0  0  0  0
   15.6994   20.2009    9.2017 C   0  0  0  0  0  0  0  0  0  0  0  0
   11.9630   23.4834    3.4173 C   0  0  0  0  0  0  0  0  0  0  0  0
   11.2108   23.9515    2.2500 O   0  0  0  0  0  0  0  0  0  0  0  0
    9.9487   24.2810    2.2393 C   0  0  0  0  0  0  0  0  0  0  0  0
    8.9461   23.3090    2.5486 C   0  0  0  0  0  0  0  0  0  0  0  0
    7.5801   23.6931    2.5022 C   0  0  0  0  0  0  0  0  0  0  0  0
    7.2250   25.0354    2.1601 C   0  0  0  0  0  0  0  0  0  0  0  0
    8.2153   26.0047    1.8713 C   0  0  0  0  0  0  0  0  0  0  0  0
    9.5709   25.6227    1.9072 C   0  0  0  0  0  0  0  0  0  0  0  0
  1  2  1  0  0  0
  1  7  1  0  0  0
  1 13  1  0  0  0
  2  3  1  0  0  0
  2  8  2  0  0  0
  3  4  1  0  0  0
  3 20  1  0  0  0
  4  5  1  0  0  0
  4 35  1  0  0  0
  5  6  1  0  0  0
  5  9  1  0  0  0
  6  7  1  0  0  0
  6 10  1  0  0  0
  7 27  1  0  0  0
 13 14  1  0  0  0
 14 15  2  0  0  0
 14 19  1  0  0  0
 15 16  1  0  0  0
 16 17  2  0  0  0
 17 18  1  0  0  0
 18 19  2  0  0  0
 20 21  1  0  0  0
 21 22  2  0  0  0
 21 26  1  0  0  0
 22 23  1  0  0  0
 23 24  2  0  0  0
 24 25  1  0  0  0
 25 26  2  0  0  0
 35 36  1  0  0  0
 36 37  1  0  0  0
 37 38  2  0  0  0
 37 42  1  0  0  0
 38 39  1  0  0  0
 39 40  2  0  0  0
 40 41  1  0  0  0
 41 42  2  0  0  0
 27 28  1  0  0  0
 28 29  1  0  0  0
 29 30  2  0  0  0
 29 34  1  0  0  0
 30 31  1  0  0  0
 31 32  2  0  0  0
 32 33  1  0  0  0
 33 34  2  0  0  0
  9 11  1  0  0  0
 10 12  1  0  0  0
M  END
> <minimizedAffinity>
-12.45454

$$$$
1AJX_AH1_A_500


 42 46  0  0  0  0  0  0  0  0999 V2000
   13.5127   22.4365    6.5228 N   0  0  0  0  0  0  0  0  0  0  0  0
   12.2527   22.0525    6.0008 C   0  0  0  0  0  0  0  0  0  0  0  0
   12.0253   21.9734    4.6822 N   0  0  0  0  0  0  0  0  0  0  0  0
   13.0421   21.5628    3.6937 C   0  0  0  0  0  0  0  0  0  0  0  0
   14.0985   22.7289    3.4304 C   0  0  0  0  0  0  0  0  0  0  0  0
   15.0487   22.9889    4.6355 C   0  0  0  0  0  0  0  0  0  0  0  0
   14.3497   23.5207    5.9176 C   0  0  0  0  0  0  0  0  0  0  0  0
   11.3066   21.7780    6.7910 O   0  0  0  0  0  0  0  0  0  0  0  0
   14.9001   22.3358    2.3887 O   0  0  0  0  0  0  0  0  0  0  0  0
   15.9558   23.9479    4.2261 O   0  0  0  0  0  0  0  0  0  0  0  0
   15.3725   21.5244    2.6326 H   0  0  0  0  0  0  0  0  0  0  0  0
   15.4837   24.7658    4.0046 H   0  0  0  0  0  0  0  0  0  0  0  0
   13.7402   22.2808    7.9780 C   0  0  0  0  0  0  0  0  0  0  0  0
   15.0339   21.6837    8.3946 C   0  0  0  0  0  0  0  0  0  0  0  0
   16.2309   22.3332    8.1165 C   0  0  0  0  0  0  0  0  0  0  0  0
   17.4482   21.7555    8.4831 C   0  0  0  0  0  0  0  0  0  0  0  0
   17.4860   20.5089    9.1299 C   0  0  0  0  0  0  0  0  0  0  0  0
   16.2863   19.8808    9.3991 C   0  0  0  0  0  0  0  0  0  0  0  0
   15.0558   20.4831    9.0260 C   0  0  0  0  0  0  0  0  0  0  0  0
   10.7040   21.8161    4.1842 C   0  0  0  0  0  0  0  0  0  0  0  0
   10.0007   22.9278    3.4242 C   0  0  0  0  0  0  0  0  0  0  0  0
    8.6137   22.8451    3.1053 C   0  0  0  0  0  0  0  0  0  0  0  0
    8.0037   23.9253    2.4548 C   0  0  0  0  0  0  0  0  0  0  0  0
    8.7115   25.0786    2.1103 C   0  0  0  0  0  0  0  0  0  0  0  0
   10.0768   25.1749    2.3998 C   0  0  0  0  0  0  0  0  0  0  0  0
   10.7346   24.1090    3.0615 C   0  0  0  0  0  0  0  0  0  0  0  0
   13.4103   24.7205    5.5668 C   0  0  0  0  0  0  0  0  0  0  0  0
   12.9497   25.5834    6.6748 O   0  0  0  0  0  0  0  0  0  0  0  0
   11.7071   25.4945    7.2446 C   0  0  0  0  0  0  0  0  0  0  0  0
   10.5737   25.2524    6.4579 C   0  0  0  0  0  0  0  0  0  0  0  0
    9.2828   25.1373    7.0403 C   0  0  0  0  0  0  0  0  0  0  0  0
    9.1067   25.2740    8.4356 C   0  0  0  0  0  0  0  0  0  0  0  0
   10.2492   25.5341    9.2303 C   0  0  0  0  0  0  0  0  0  0  0  0
   11.5478   25.6370    8.6169 C   0  0  0  0  0  0  0  0  0  0  0  0
   13.7833   20.3863    4.2453 C   0  0  0  0  0  0  0  0  0  0  0  0
   14.4827   19.4421    3.3695 O   0  0  0  0  0  0  0  0  0  0  0  0
   15.7131   19.0348    3.5168 C   0  0  0  0  0  0  0  0  0  0  0  0
   16.5373   19.5856    4.5477 C   0  0  0  0  0  0  0  0  0  0  0  0
   17.8803   19.1400    4.6645 C   0  0  0  0  0  0  0  0  0  0  0  0
   18.3864   18.1490    3.7664 C   0  0  0  0  0  0  0  0  0  0  0  0
   17.5681   17.5884    2.7566 C   0  0  0  0  0  0  0  0  0  0  0  0
   16.2382   18.0367    2.6330 C   0  0  0  0  0  0  0  0  0  0  0  0
  1  2  1  0  0  0
  1  7  1  0  0  0
  1 13  1  0  0  0
  2  3  1  0  0  0
  2  8  2  0  0  0
  3  4  1  0  0  0
  3 20  1  0  0  0
  4  5  1  0  0  0
  4 35  1  0  0  0
  5  6  1  0  0  0
  5  9  1  0  0  0
  6  7  1  0  0  0
  6 10  1  0  0  0
  7 27  1  0  0  0
 13 14  1  0  0  0
 14 15  2  0  0  0
 14 19  1  0  0  0
 15 16  1  0  0  0
 16 17  2  0  0  0
 17 18  1  0  0  0
 18 19  2  0  0  0
 20 21  1  0  0  0
 21 22  2  0  0  0
 21 26  1  0  0  0
 22 23  1  0  0  0
 23 24  2  0  0  0
 24 25  1  0  0  0
 25 26  2  0  0  0
 35 36  1  0  0  0
 36 37  1  0  0  0
 37 38  2  0  0  0
 37 42  1  0  0  0
 38 39  1  0  0  0
 39 40  2  0  0  0
 40 41  1  0  0  0
 41 42  2  0  0  0
 27 28  1  0  0  0
 28 29  1  0  0  0
 29 30  2  0  0  0
 29 34  1  0  0  0
 30 31  1  0  0  0
 31 32  2  0  0  0
 32 33  1  0  0  0
 33 34  2  0  0  0
  9 11  1  0  0  0
 10 12  1  0  0  0
M  END
> <minimizedAffinity>
-11.21639

$$$$
1AJX_AH1_A_500


 42 46  0  0  0  0  0  0  0  0999 V2000
   12.0414   22.0667    4.5691 N   0  0  0  0  0  0  0  0  0  0  0  0
   12.2574   22.1028    5.9690 C   0  0  0  0  0  0  0  0  0  0  0  0
   13.4279   22.4879    6.4965 N   0  0  0  0  0  0  0  0  0  0  0  0
   14.3005   23.5194    5.9013 C   0  0  0  0  0  0  0  0  0  0  0  0
   15.0736   22.9578    4.6239 C   0  0  0  0  0  0  0  0  0  0  0  0
   14.1478   22.7115    3.3971 C   0  0  0  0  0  0  0  0  0  0  0  0
   13.0793   21.6005    3.5958 C   0  0  0  0  0  0  0  0  0  0  0  0
   11.3287   21.7603    6.7533 O   0  0  0  0  0  0  0  0  0  0  0  0
   15.9797   23.9114    4.2343 O   0  0  0  0  0  0  0  0  0  0  0  0
   14.9663   22.3218    2.3539 O   0  0  0  0  0  0  0  0  0  0  0  0
   15.5094   24.7246    3.9923 H   0  0  0  0  0  0  0  0  0  0  0  0
   15.4182   21.4963    2.5885 H   0  0  0  0  0  0  0  0  0  0  0  0
   10.6595   21.8471    4.0833 C   0  0  0  0  0  0  0  0  0  0  0  0
   10.0066   22.9812    3.3825 C   0  0  0  0  0  0  0  0  0  0  0  0
   10.7661   24.0380    2.8942 C   0  0  0  0  0  0  0  0  0  0  0  0
   10.1469   25.1179    2.2614 C   0  0  0  0  0  0  0  0  0  0  0  0
    8.7503   25.1599    2.1143 C   0  0  0  0  0  0  0  0  0  0  0  0
    8.0139   24.0997    2.6041 C   0  0  0  0  0  0  0  0  0  0  0  0
    8.6577   23.0054    3.2398 C   0  0  0  0  0  0  0  0  0  0  0  0
   13.6972   22.2947    7.8781 C   0  0  0  0  0  0  0  0  0  0  0  0
   15.0115   21.7039    8.3591 C   0  0  0  0  0  0  0  0  0  0  0  0
   15.0558   20.4541    9.0435 C   0  0  0  0  0  0  0  0  0  0  0  0
   16.3008   19.9287    9.4125 C   0  0  0  0  0  0  0  0  0  0  0  0
   17.4976   20.5906    9.1305 C   0  0  0  0  0  0  0  0  0  0  0  0
   17.4767   21.8256    8.4735 C   0  0  0  0  0  0  0  0  0  0  0  0
   16.2407   22.3929    8.0768 C   0  0  0  0  0  0  0  0  0  0  0  0
   13.7410   20.3071    4.1742 C   0  0  0  0  0  0  0  0  0  0  0  0
   14.4354   19.4060    3.2307 O   0  0  0  0  0  0  0  0  0  0  0  0
   15.7321   18.9924    3.3858 C   0  0  0  0  0  0  0  0  0  0  0  0
   16.5203   19.4831    4.4346 C   0  0  0  0  0  0  0  0  0  0  0  0
   17.8596   19.0455    4.6177 C   0  0  0  0  0  0  0  0  0  0  0  0
   18.4376   18.1050    3.7357 C   0  0  0  0  0  0  0  0  0  0  0  0
   17.6473   17.6198    2.6659 C   0  0  0  0  0  0  0  0  0  0  0  0
   16.2895   18.0720    2.5076 C   0  0  0  0  0  0  0  0  0  0  0  0
   13.4407   24.6593    5.4546 C   0  0  0  0  0  0  0  0  0  0  0  0
   12.9059   25.6351    6.4082 O   0  0  0  0  0  0  0  0  0  0  0  0
   11.7677   25.5395    7.0381 C   0  0  0  0  0  0  0  0  0  0  0  0
   11.7172   25.6688    8.4616 C   0  0  0  0  0  0  0  0  0  0  0  0
   10.4664   25.5332    9.1193 C   0  0  0  0  0  0  0  0  0  0  0  0
    9.2814   25.2812    8.3594 C   0  0  0  0  0  0  0  0  0  0  0  0
    9.3249   25.1709    6.9489 C   0  0  0  0  0  0  0  0  0  0  0  0
   10.5668   25.2954    6.2955 C   0  0  0  0  0  0  0  0  0  0  0  0
  1  2  1  0  0  0
  1  7  1  0  0  0
  1 13  1  0  0  0
  2  3  1  0  0  0
  2  8  2  0  0  0
  3  4  1  0  0  0
  3 20  1  0  0  0
  4  5  1  0  0  0
  4 35  1  0  0  0
  5  6  1  0  0  0
  5  9  1  0  0  0
  6  7  1  0  0  0
  6 10  1  0  0  0
  7 27  1  0  0  0
 13 14  1  0  0  0
 14 15  2  0  0  0
 14 19  1  0  0  0
 15 16  1  0  0  0
 16 17  2  0  0  0
 17 18  1  0  0  0
 18 19  2  0  0  0
 20 21  1  0  0  0
 21 22  2  0  0  0
 21 26  1  0  0  0
 22 23  1  0  0  0
 23 24  2  0  0  0
 24 25  1  0  0  0
 25 26  2  0  0  0
 35 36  1  0  0  0
 36 37  1  0  0  0
 37 38  2  0  0  0
 37 42  1  0  0  0
 38 39  1  0  0  0
 39 40  2  0  0  0
 40 41  1  0  0  0
 41 42  2  0  0  0
 27 28  1  0  0  0
 28 29  1  0  0  0
 29 30  2  0  0  0
 29 34  1  0  0  0
 30 31  1  0  0  0
 31 32  2  0  0  0
 32 33  1  0  0  0
 33 34  2  0  0  0
  9 11  1  0  0  0
 10 12  1  0  0  0
M  END
> <minimizedAffinity>
-11.13826

$$$$
1AJX_AH1_A_500


 42 46  0  0  0  0  0  0  0  0999 V2000
   11.8404   22.7925    4.9588 N   0  0  0  0  0  0  0  0  0  0  0  0
   12.2494   21.9634    6.0325 C   0  0  0  0  0  0  0  0  0  0  0  0
   12.9223   22.4472    7.0860 N   0  0  0  0  0  0  0  0  0  0  0  0
   12.7214   23.8002    7.6416 C   0  0  0  0  0  0  0  0  0  0  0  0
   13.3930   24.9124    6.7158 C   0  0  0  0  0  0  0  0  0  0  0  0
   12.6590   25.1156    5.3583 C   0  0  0  0  0  0  0  0  0  0  0  0
   12.6957   23.8893    4.4042 C   0  0  0  0  0  0  0  0  0  0  0  0
   11.9815   20.7295    6.0059 O   0  0  0  0  0  0  0  0  0  0  0  0
   13.3098   26.1105    7.3790 O   0  0  0  0  0  0  0  0  0  0  0  0
   13.2931   26.1628    4.7170 O   0  0  0  0  0  0  0  0  0  0  0  0
   12.3775   26.3352    7.5249 H   0  0  0  0  0  0  0  0  0  0  0  0
   14.2194   25.9272    4.5513 H   0  0  0  0  0  0  0  0  0  0  0  0
   10.9142   22.2230    3.9531 C   0  0  0  0  0  0  0  0  0  0  0  0
    9.7057   23.0209    3.6263 C   0  0  0  0  0  0  0  0  0  0  0  0
    9.0215   22.8065    2.4355 C   0  0  0  0  0  0  0  0  0  0  0  0
    7.9024   23.5783    2.1167 C   0  0  0  0  0  0  0  0  0  0  0  0
    7.4537   24.5867    2.9860 C   0  0  0  0  0  0  0  0  0  0  0  0
    8.1456   24.7827    4.1647 C   0  0  0  0  0  0  0  0  0  0  0  0
    9.2782   23.9860    4.4785 C   0  0  0  0  0  0  0  0  0  0  0  0
   13.5206   21.5678    8.0280 C   0  0  0  0  0  0  0  0  0  0  0  0
   15.0293   21.4543    8.1662 C   0  0  0  0  0  0  0  0  0  0  0  0
   15.8868   22.5482    7.8495 C   0  0  0  0  0  0  0  0  0  0  0  0
   17.2658   22.4071    8.0515 C   0  0  0  0  0  0  0  0  0  0  0  0
   17.8248   21.2300    8.5532 C   0  0  0  0  0  0  0  0  0  0  0  0
   17.0035   20.1386    8.8562 C   0  0  0  0  0  0  0  0  0  0  0  0
   15.6023   20.2376    8.6727 C   0  0  0  0  0  0  0  0  0  0  0  0
   14.1562   23.3465    4.2725 C   0  0  0  0  0  0  0  0  0  0  0  0
   14.4300   22.3518    3.2142 O   0  0  0  0  0  0  0  0  0  0  0  0
   14.8430   21.0693    3.4616 C   0  0  0  0  0  0  0  0  0  0  0  0
   15.6137   20.7702    4.5924 C   0  0  0  0  0  0  0  0  0  0  0  0
   16.0299   19.4404    4.8704 C   0  0  0  0  0  0  0  0  0  0  0  0
   15.6827   18.3802    4.0032 C   0  0  0  0  0  0  0  0  0  0  0  0
   14.9169   18.6834    2.8516 C   0  0  0  0  0  0  0  0  0  0  0  0
   14.4995   20.0377    2.5973 C   0  0  0  0  0  0  0  0  0  0  0  0
   11.2511   24.0715    7.6939 C   0  0  0  0  0  0  0  0  0  0  0  0
   10.6733   24.9712    8.6960 O   0  0  0  0  0  0  0  0  0  0  0  0
    9.7768   25.8908    8.4672 C   0  0  0  0  0  0  0  0  0  0  0  0
    8.4309   25.5241    8.1516 C   0  0  0  0  0  0  0  0  0  0  0  0
    7.4856   26.5485    7.8819 C   0  0  0  0  0  0  0  0  0  0  0  0
    7.8821   27.9213    7.9374 C   0  0  0  0  0  0  0  0  0  0  0  0
    9.2088   28.2883    8.2673 C   0  0  0  0  0  0  0  0  0  0  0  0
   10.1505   27.2728    8.5256 C   0  0  0  0  0  0  0  0  0  0  0  0
  1  2  1  0  0  0
  1  7  1  0  0  0
  1 13  1  0  0  0
  2  3  1  0  0  0
  2  8  2  0  0  0
  3  4  1  0  0  0
  3 20  1  0  0  0
  4  5  1  0  0  0
  4 35  1  0  0  0
  5  6  1  0  0  0
  5  9  1  0  0  0
  6  7  1  0  0  0
  6 10  1  0  0  0
  7 27  1  0  0  0
 13 14  1  0  0  0
 14 15  2  0  0  0
 14 19  1  0  0  0
 15 16  1  0  0  0
 16 17  2  0  0  0
 17 18  1  0  0  0
 18 19  2  0  0  0
 20 21  1  0  0  0
 21 22  2  0  0  0
 21 26  1  0  0  0
 22 23  1  0  0  0
 23 24  2  0  0  0
 24 25  1  0  0  0
 25 26  2  0  0  0
 35 36  1  0  0  0
 36 37  1  0  0  0
 37 38  2  0  0  0
 37 42  1  0  0  0
 38 39  1  0  0  0
 39 40  2  0  0  0
 40 41  1  0  0  0
 41 42  2  0  0  0
 27 28  1  0  0  0
 28 29  1  0  0  0
 29 30  2  0  0  0
 29 34  1  0  0  0
 30 31  1  0  0  0
 31 32  2  0  0  0
 32 33  1  0  0  0
 33 34  2  0  0  0
  9 11  1  0  0  0
 10 12  1  0  0  0
M  END
> <minimizedAffinity>
-10.95358

$$$$
1AJX_AH1_A_500


 42 46  0  0  0  0  0  0  0  0999 V2000
   13.0166   22.4947    7.0855 N   0  0  0  0  0  0  0  0  0  0  0  0
   12.2943   21.9623    5.9890 C   0  0  0  0  0  0  0  0  0  0  0  0
   11.9522   22.7134    4.9328 N   0  0  0  0  0  0  0  0  0  0  0  0
   12.7762   23.8198    4.4069 C   0  0  0  0  0  0  0  0  0  0  0  0
   12.6798   25.1092    5.3413 C   0  0  0  0  0  0  0  0  0  0  0  0
   13.3895   24.9340    6.7155 C   0  0  0  0  0  0  0  0  0  0  0  0
   12.7599   23.8596    7.6453 C   0  0  0  0  0  0  0  0  0  0  0  0
   11.9533   20.7463    5.9969 O   0  0  0  0  0  0  0  0  0  0  0  0
   13.3301   26.1346    4.7026 O   0  0  0  0  0  0  0  0  0  0  0  0
   13.3029   26.1508    7.3650 O   0  0  0  0  0  0  0  0  0  0  0  0
   14.2625   25.8982    4.5779 H   0  0  0  0  0  0  0  0  0  0  0  0
   12.3702   26.3747    7.5093 H   0  0  0  0  0  0  0  0  0  0  0  0
   13.5436   21.5496    8.0968 C   0  0  0  0  0  0  0  0  0  0  0  0
   15.0195   21.4689    8.2347 C   0  0  0  0  0  0  0  0  0  0  0  0
   15.8108   22.5866    7.9968 C   0  0  0  0  0  0  0  0  0  0  0  0
   17.2009   22.5008    8.0983 C   0  0  0  0  0  0  0  0  0  0  0  0
   17.8232   21.2866    8.4334 C   0  0  0  0  0  0  0  0  0  0  0  0
   17.0197   20.1885    8.6679 C   0  0  0  0  0  0  0  0  0  0  0  0
   15.6072   20.2922    8.5671 C   0  0  0  0  0  0  0  0  0  0  0  0
   11.0358   22.2242    3.9636 C   0  0  0  0  0  0  0  0  0  0  0  0
    9.8026   23.0151    3.5617 C   0  0  0  0  0  0  0  0  0  0  0  0
    9.0992   22.7288    2.3552 C   0  0  0  0  0  0  0  0  0  0  0  0
    7.9347   23.4506    2.0635 C   0  0  0  0  0  0  0  0  0  0  0  0
    7.4426   24.4400    2.9172 C   0  0  0  0  0  0  0  0  0  0  0  0
    8.1254   24.7482    4.0988 C   0  0  0  0  0  0  0  0  0  0  0  0
    9.3047   24.0402    4.4374 C   0  0  0  0  0  0  0  0  0  0  0  0
   11.2123   24.0621    7.7401 C   0  0  0  0  0  0  0  0  0  0  0  0
   10.7055   25.0720    8.6929 O   0  0  0  0  0  0  0  0  0  0  0  0
    9.8192   26.0608    8.3563 C   0  0  0  0  0  0  0  0  0  0  0  0
    8.9600   26.6102    9.3165 C   0  0  0  0  0  0  0  0  0  0  0  0
    8.0514   27.6506    8.9837 C   0  0  0  0  0  0  0  0  0  0  0  0
    7.9843   28.1547    7.6654 C   0  0  0  0  0  0  0  0  0  0  0  0
    8.8412   27.5897    6.6903 C   0  0  0  0  0  0  0  0  0  0  0  0
    9.7597   26.5426    7.0551 C   0  0  0  0  0  0  0  0  0  0  0  0
   14.2034   23.3720    4.3863 C   0  0  0  0  0  0  0  0  0  0  0  0
   14.6911   22.4127    3.3916 O   0  0  0  0  0  0  0  0  0  0  0  0
   15.0207   21.1727    3.6271 C   0  0  0  0  0  0  0  0  0  0  0  0
   15.9190   20.8546    4.6936 C   0  0  0  0  0  0  0  0  0  0  0  0
   16.2784   19.4977    4.9068 C   0  0  0  0  0  0  0  0  0  0  0  0
   15.7370   18.4735    4.0684 C   0  0  0  0  0  0  0  0  0  0  0  0
   14.8336   18.7828    3.0236 C   0  0  0  0  0  0  0  0  0  0  0  0
   14.4835   20.1298    2.8044 C   0  0  0  0  0  0  0  0  0  0  0  0
  1  2  1  0  0  0
  1  7  1  0  0  0
  1 13  1  0  0  0
  2  3  1  0  0  0
  2  8  2  0  0  0
  3  4  1  0  0  0
  3 20  1  0  0  0
  4  5  1  0  0  0
  4 35  1  0  0  0
  5  6  1  0  0  0
  5  9  1  0  0  0
  6  7  1  0  0  0
  6 10  1  0  0  0
  7 27  1  0  0  0
 13 14  1  0  0  0
 14 15  2  0  0  0
 14 19  1  0  0  0
 15 16  1  0  0  0
 16 17  2  0  0  0
 17 18  1  0  0  0
 18 19  2  0  0  0
 20 21  1  0  0  0
 21 22  2  0  0  0
 21 26  1  0  0  0
 22 23  1  0  0  0
 23 24  2  0  0  0
 24 25  1  0  0  0
 25 26  2  0  0  0
 35 36  1  0  0  0
 36 37  1  0  0  0
 37 38  2  0  0  0
 37 42  1  0  0  0
 38 39  1  0  0  0
 39 40  2  0  0  0
 40 41  1  0  0  0
 41 42  2  0  0  0
 27 28  1  0  0  0
 28 29  1  0  0  0
 29 30  2  0  0  0
 29 34  1  0  0  0
 30 31  1  0  0  0
 31 32  2  0  0  0
 32 33  1  0  0  0
 33 34  2  0  0  0
  9 11  1  0  0  0
 10 12  1  0  0  0
M  END
> <minimizedAffinity>
-10.91338

$$$$
1AJX_AH1_A_500


 42 46  0  0  0  0  0  0  0  0999 V2000
   13.4458   22.9493    4.1022 N   0  0  0  0  0  0  0  0  0  0  0  0
   13.6247   23.9438    5.0955 C   0  0  0  0  0  0  0  0  0  0  0  0
   12.6685   24.2346    5.9886 N   0  0  0  0  0  0  0  0  0  0  0  0
   11.7278   23.2403    6.5420 C   0  0  0  0  0  0  0  0  0  0  0  0
   10.6024   22.8534    5.4795 C   0  0  0  0  0  0  0  0  0  0  0  0
   11.1399   22.0133    4.2845 C   0  0  0  0  0  0  0  0  0  0  0  0
   12.1552   22.7525    3.3689 C   0  0  0  0  0  0  0  0  0  0  0  0
   14.7114   24.5851    5.1486 O   0  0  0  0  0  0  0  0  0  0  0  0
    9.6813   22.0630    6.1193 O   0  0  0  0  0  0  0  0  0  0  0  0
   10.0452   21.6793    3.5098 O   0  0  0  0  0  0  0  0  0  0  0  0
   10.1137   21.2549    6.4368 H   0  0  0  0  0  0  0  0  0  0  0  0
    9.6276   22.4880    3.1743 H   0  0  0  0  0  0  0  0  0  0  0  0
   14.6259   22.5397    3.3065 C   0  0  0  0  0  0  0  0  0  0  0  0
   15.0467   21.1200    3.4128 C   0  0  0  0  0  0  0  0  0  0  0  0
   14.6486   20.1943    2.4554 C   0  0  0  0  0  0  0  0  0  0  0  0
   15.0210   18.8537    2.5732 C   0  0  0  0  0  0  0  0  0  0  0  0
   15.7949   18.4159    3.6610 C   0  0  0  0  0  0  0  0  0  0  0  0
   16.1820   19.3511    4.6001 C   0  0  0  0  0  0  0  0  0  0  0  0
   15.8011   20.7122    4.4640 C   0  0  0  0  0  0  0  0  0  0  0  0
   12.7780   25.3834    6.8174 C   0  0  0  0  0  0  0  0  0  0  0  0
   11.6000   25.8970    7.6277 C   0  0  0  0  0  0  0  0  0  0  0  0
   10.5240   26.5979    7.0085 C   0  0  0  0  0  0  0  0  0  0  0  0
    9.4357   26.9974    7.7948 C   0  0  0  0  0  0  0  0  0  0  0  0
    9.3726   26.7300    9.1639 C   0  0  0  0  0  0  0  0  0  0  0  0
   10.4245   26.0573    9.7950 C   0  0  0  0  0  0  0  0  0  0  0  0
   11.5433   25.6297    9.0386 C   0  0  0  0  0  0  0  0  0  0  0  0
   11.6034   24.1604    2.9708 C   0  0  0  0  0  0  0  0  0  0  0  0
   10.3481   24.2150    2.1927 O   0  0  0  0  0  0  0  0  0  0  0  0
    9.1813   24.7556    2.6647 C   0  0  0  0  0  0  0  0  0  0  0  0
    7.9404   24.2537    2.2519 C   0  0  0  0  0  0  0  0  0  0  0  0
    6.7241   24.7926    2.7508 C   0  0  0  0  0  0  0  0  0  0  0  0
    6.7347   25.8614    3.6749 C   0  0  0  0  0  0  0  0  0  0  0  0
    7.9878   26.3801    4.0813 C   0  0  0  0  0  0  0  0  0  0  0  0
    9.2065   25.8102    3.5681 C   0  0  0  0  0  0  0  0  0  0  0  0
   12.4968   21.9998    6.8702 C   0  0  0  0  0  0  0  0  0  0  0  0
   13.3313   21.9112    8.0715 O   0  0  0  0  0  0  0  0  0  0  0  0
   14.6304   21.7943    8.0896 C   0  0  0  0  0  0  0  0  0  0  0  0
   15.2381   20.5012    8.1521 C   0  0  0  0  0  0  0  0  0  0  0  0
   16.6542   20.4096    8.1971 C   0  0  0  0  0  0  0  0  0  0  0  0
   17.4497   21.5976    8.1699 C   0  0  0  0  0  0  0  0  0  0  0  0
   16.8521   22.8782    8.0896 C   0  0  0  0  0  0  0  0  0  0  0  0
   15.4468   22.9714    8.0548 C   0  0  0  0  0  0  0  0  0  0  0  0
  1  2  1  0  0  0
  1  7  1  0  0  0
  1 13  1  0  0  0
  2  3  1  0  0  0
  2  8  2  0  0  0
  3  4  1  0  0  0
  3 20  1  0  0  0
  4  5  1  0  0  0
  4 35  1  0  0  0
  5  6  1  0  0  0
  5  9  1  0  0  0
  6  7  1  0  0  0
  6 10  1  0  0  0
  7 27  1  0  0  0
 13 14  1  0  0  0
 14 15  2  0  0  0
 14 19  1  0  0  0
 15 16  1  0  0  0
 16 17  2  0  0  0
 17 18  1  0  0  0
 18 19  2  0  0  0
 20 21  1  0  0  0
 21 22  2  0  0  0
 21 26  1  0  0  0
 22 23  1  0  0  0
 23 24  2  0  0  0
 24 25  1  0  0  0
 25 26  2  0  0  0
 35 36  1  0  0  0
 36 37  1  0  0  0
 37 38  2  0  0  0
 37 42  1  0  0  0
 38 39  1  0  0  0
 39 40  2  0  0  0
 40 41  1  0  0  0
 41 42  2  0  0  0
 27 28  1  0  0  0
 28 29  1  0  0  0
 29 30  2  0  0  0
 29 34  1  0  0  0
 30 31  1  0  0  0
 31 32  2  0  0  0
 32 33  1  0  0  0
 33 34  2  0  0  0
  9 11  1  0  0  0
 10 12  1  0  0  0
M  END
> <minimizedAffinity>
-9.89074

$$$$
1AJX_AH1_A_500


 42 46  0  0  0  0  0  0  0  0999 V2000
   13.1301   23.9650    4.9721 N   0  0  0  0  0  0  0  0  0  0  0  0
   14.5084   23.6979    5.1632 C   0  0  0  0  0  0  0  0  0  0  0  0
   14.9459   22.5128    5.6112 N   0  0  0  0  0  0  0  0  0  0  0  0
   14.2987   21.2234    5.2981 C   0  0  0  0  0  0  0  0  0  0  0  0
   12.9545   21.0312    6.1354 C   0  0  0  0  0  0  0  0  0  0  0  0
   11.8025   21.9761    5.6849 C   0  0  0  0  0  0  0  0  0  0  0  0
   12.0691   23.4897    5.9158 C   0  0  0  0  0  0  0  0  0  0  0  0
   15.3595   24.5963    4.9114 O   0  0  0  0  0  0  0  0  0  0  0  0
   12.5082   19.7524    5.9169 O   0  0  0  0  0  0  0  0  0  0  0  0
   10.6908   21.6296    6.4292 O   0  0  0  0  0  0  0  0  0  0  0  0
   12.3178   19.6332    4.9733 H   0  0  0  0  0  0  0  0  0  0  0  0
   10.8752   21.7712    7.3710 H   0  0  0  0  0  0  0  0  0  0  0  0
   12.7538   25.2118    4.2667 C   0  0  0  0  0  0  0  0  0  0  0  0
   11.3372   25.3407    3.8418 C   0  0  0  0  0  0  0  0  0  0  0  0
   10.3927   25.8928    4.6992 C   0  0  0  0  0  0  0  0  0  0  0  0
    9.0553   25.9861    4.3087 C   0  0  0  0  0  0  0  0  0  0  0  0
    8.6398   25.5185    3.0507 C   0  0  0  0  0  0  0  0  0  0  0  0
    9.5934   24.9754    2.2128 C   0  0  0  0  0  0  0  0  0  0  0  0
   10.9509   24.8928    2.6209 C   0  0  0  0  0  0  0  0  0  0  0  0
   16.2981   22.3463    6.0143 C   0  0  0  0  0  0  0  0  0  0  0  0
   16.6983   21.3156    7.0562 C   0  0  0  0  0  0  0  0  0  0  0  0
   17.5919   20.2508    6.7402 C   0  0  0  0  0  0  0  0  0  0  0  0
   17.9725   19.3635    7.7551 C   0  0  0  0  0  0  0  0  0  0  0  0
   17.5043   19.4903    9.0646 C   0  0  0  0  0  0  0  0  0  0  0  0
   16.6145   20.5186    9.3934 C   0  0  0  0  0  0  0  0  0  0  0  0
   16.2061   21.4427    8.4005 C   0  0  0  0  0  0  0  0  0  0  0  0
   12.5719   23.7367    7.3757 C   0  0  0  0  0  0  0  0  0  0  0  0
   12.3926   25.0874    7.9482 O   0  0  0  0  0  0  0  0  0  0  0  0
   11.1765   25.6119    8.2982 C   0  0  0  0  0  0  0  0  0  0  0  0
   10.0193   24.8234    8.2639 C   0  0  0  0  0  0  0  0  0  0  0  0
    8.7561   25.3507    8.6448 C   0  0  0  0  0  0  0  0  0  0  0  0
    8.6323   26.6950    9.0619 C   0  0  0  0  0  0  0  0  0  0  0  0
    9.7983   27.4977    9.0823 C   0  0  0  0  0  0  0  0  0  0  0  0
   11.0683   26.9369    8.7005 C   0  0  0  0  0  0  0  0  0  0  0  0
   13.9407   21.2196    3.8456 C   0  0  0  0  0  0  0  0  0  0  0  0
   14.0415   20.0029    3.0349 O   0  0  0  0  0  0  0  0  0  0  0  0
   15.0758   19.2101    2.9766 C   0  0  0  0  0  0  0  0  0  0  0  0
   15.9337   19.2258    1.8324 C   0  0  0  0  0  0  0  0  0  0  0  0
   17.0358   18.3318    1.7884 C   0  0  0  0  0  0  0  0  0  0  0  0
   17.2795   17.4415    2.8807 C   0  0  0  0  0  0  0  0  0  0  0  0
   16.4432   17.4362    4.0226 C   0  0  0  0  0  0  0  0  0  0  0  0
   15.3434   18.3158    4.0636 C   0  0  0  0  0  0  0  0  0  0  0  0
  1  2  1  0  0  0
  1  7  1  0  0  0
  1 13  1  0  0  0
  2  3  1  0  0  0
  2  8  2  0  0  0
  3  4  1  0  0  0
  3 20  1  0  0  0
  4  5  1  0  0  0
  4 35  1  0  0  0
  5  6  1  0  0  0
  5  9  1  0  0  0
  6  7  1  0  0  0
  6 10  1  0  0  0
  7 27  1  0  0  0
 13 14  1  0  0  0
 14 15  2  0  0  0
 14 19  1  0  0  0
 15 16  1  0  0  0
 16 17  2  0  0  0
 17 18  1  0  0  0
 18 19  2  0  0  0
 20 21  1  0  0  0
 21 22  2  0  0  0
 21 26  1  0  0  0
 22 23  1  0  0  0
 23 24  2  0  0  0
 24 25  1  0  0  0
 25 26  2  0  0  0
 35 36  1  0  0  0
 36 37  1  0  0  0
 37 38  2  0  0  0
 37 42  1  0  0  0
 38 39  1  0  0  0
 39 40  2  0  0  0
 40 41  1  0  0  0
 41 42  2  0  0  0
 27 28  1  0  0  0
 28 29  1  0  0  0
 29 30  2  0  0  0
 29 34  1  0  0  0
 30 31  1  0  0  0
 31 32  2  0  0  0
 32 33  1  0  0  0
 33 34  2  0  0  0
  9 11  1  0  0  0
 10 12  1  0  0  0
M  END
> <minimizedAffinity>
-9.84231

$$$$
1AJX_AH1_A_500


 42 46  0  0  0  0  0  0  0  0999 V2000
   12.6784   24.2193    6.0594 N   0  0  0  0  0  0  0  0  0  0  0  0
   13.7089   23.9027    5.1400 C   0  0  0  0  0  0  0  0  0  0  0  0
   13.5305   23.0138    4.1527 N   0  0  0  0  0  0  0  0  0  0  0  0
   12.2495   22.8120    3.4471 C   0  0  0  0  0  0  0  0  0  0  0  0
   11.2124   22.0019    4.3490 C   0  0  0  0  0  0  0  0  0  0  0  0
   10.6752   22.8174    5.5611 C   0  0  0  0  0  0  0  0  0  0  0  0
   11.7455   23.1929    6.6236 C   0  0  0  0  0  0  0  0  0  0  0  0
   14.8348   24.4650    5.2458 O   0  0  0  0  0  0  0  0  0  0  0  0
   10.1216   21.7120    3.5690 O   0  0  0  0  0  0  0  0  0  0  0  0
    9.7285   22.0261    6.1836 O   0  0  0  0  0  0  0  0  0  0  0  0
    9.7095   22.5376    3.2698 H   0  0  0  0  0  0  0  0  0  0  0  0
   10.1472   21.2113    6.5025 H   0  0  0  0  0  0  0  0  0  0  0  0
   12.8875   25.3674    6.9714 C   0  0  0  0  0  0  0  0  0  0  0  0
   11.7061   25.8413    7.7352 C   0  0  0  0  0  0  0  0  0  0  0  0
   11.5834   25.5563    9.0902 C   0  0  0  0  0  0  0  0  0  0  0  0
   10.4571   25.9775    9.8000 C   0  0  0  0  0  0  0  0  0  0  0  0
    9.4278   26.6872    9.1591 C   0  0  0  0  0  0  0  0  0  0  0  0
    9.5695   26.9622    7.8135 C   0  0  0  0  0  0  0  0  0  0  0  0
   10.7232   26.5329    7.1059 C   0  0  0  0  0  0  0  0  0  0  0  0
   14.6361   22.5426    3.3951 C   0  0  0  0  0  0  0  0  0  0  0  0
   15.1032   21.0994    3.4793 C   0  0  0  0  0  0  0  0  0  0  0  0
   15.9382   20.6517    4.5444 C   0  0  0  0  0  0  0  0  0  0  0  0
   16.2905   19.2972    4.6043 C   0  0  0  0  0  0  0  0  0  0  0  0
   15.8489   18.3739    3.6543 C   0  0  0  0  0  0  0  0  0  0  0  0
   15.0414   18.7942    2.5920 C   0  0  0  0  0  0  0  0  0  0  0  0
   14.6557   20.1538    2.4939 C   0  0  0  0  0  0  0  0  0  0  0  0
   12.5875   21.9348    7.0152 C   0  0  0  0  0  0  0  0  0  0  0  0
   13.4433   22.0238    8.2169 O   0  0  0  0  0  0  0  0  0  0  0  0
   14.7970   21.8145    8.2062 C   0  0  0  0  0  0  0  0  0  0  0  0
   15.6882   22.8928    8.1350 C   0  0  0  0  0  0  0  0  0  0  0  0
   17.0944   22.6891    8.1444 C   0  0  0  0  0  0  0  0  0  0  0  0
   17.6333   21.3850    8.2170 C   0  0  0  0  0  0  0  0  0  0  0  0
   16.7338   20.2932    8.2733 C   0  0  0  0  0  0  0  0  0  0  0  0
   15.3130   20.5267    8.2718 C   0  0  0  0  0  0  0  0  0  0  0  0
   11.6572   24.1550    3.1582 C   0  0  0  0  0  0  0  0  0  0  0  0
   10.4535   24.3004    2.3351 O   0  0  0  0  0  0  0  0  0  0  0  0
    9.3057   24.7694    2.7404 C   0  0  0  0  0  0  0  0  0  0  0  0
    8.0855   24.2683    2.1878 C   0  0  0  0  0  0  0  0  0  0  0  0
    6.8541   24.8185    2.6313 C   0  0  0  0  0  0  0  0  0  0  0  0
    6.8462   25.8497    3.6220 C   0  0  0  0  0  0  0  0  0  0  0  0
    8.0511   26.3352    4.1843 C   0  0  0  0  0  0  0  0  0  0  0  0
    9.2744   25.7972    3.7382 C   0  0  0  0  0  0  0  0  0  0  0  0
  1  2  1  0  0  0
  1  7  1  0  0  0
  1 13  1  0  0  0
  2  3  1  0  0  0
  2  8  2  0  0  0
  3  4  1  0  0  0
  3 20  1  0  0  0
  4  5  1  0  0  0
  4 35  1  0  0  0
  5  6  1  0  0  0
  5  9  1  0  0  0
  6  7  1  0  0  0
  6 10  1  0  0  0
  7 27  1  0  0  0
 13 14  1  0  0  0
 14 15  2  0  0  0
 14 19  1  0  0  0
 15 16  1  0  0  0
 16 17  2  0  0  0
 17 18  1  0  0  0
 18 19  2  0  0  0
 20 21  1  0  0  0
 21 22  2  0  0  0
 21 26  1  0  0  0
 22 23  1  0  0  0
 23 24  2  0  0  0
 24 25  1  0  0  0
 25 26  2  0  0  0
 35 36  1  0  0  0
 36 37  1  0  0  0
 37 38  2  0  0  0
 37 42  1  0  0  0
 38 39  1  0  0  0
 39 40  2  0  0  0
 40 41  1  0  0  0
 41 42  2  0  0  0
 27 28  1  0  0  0
 28 29  1  0  0  0
 29 30  2  0  0  0
 29 34  1  0  0  0
 30 31  1  0  0  0
 31 32  2  0  0  0
 32 33  1  0  0  0
 33 34  2  0  0  0
  9 11  1  0  0  0
 10 12  1  0  0  0
M  END
> <minimizedAffinity>
-9.78543

$$$$
1AJX_AH1_A_500


 42 46  0  0  0  0  0  0  0  0999 V2000
   13.9615   22.9938    5.6834 N   0  0  0  0  0  0  0  0  0  0  0  0
   13.5223   24.2084    5.1007 C   0  0  0  0  0  0  0  0  0  0  0  0
   12.2228   24.5258    5.0165 N   0  0  0  0  0  0  0  0  0  0  0  0
   11.2145   24.1452    6.0255 C   0  0  0  0  0  0  0  0  0  0  0  0
   10.8333   22.6004    5.9099 C   0  0  0  0  0  0  0  0  0  0  0  0
   11.9753   21.6441    6.3616 C   0  0  0  0  0  0  0  0  0  0  0  0
   13.2545   21.6896    5.4801 C   0  0  0  0  0  0  0  0  0  0  0  0
   14.3706   25.0225    4.6396 O   0  0  0  0  0  0  0  0  0  0  0  0
    9.7809   22.3676    6.7587 O   0  0  0  0  0  0  0  0  0  0  0  0
   11.4678   20.3604    6.2951 O   0  0  0  0  0  0  0  0  0  0  0  0
   10.0507   22.5638    7.6695 H   0  0  0  0  0  0  0  0  0  0  0  0
   11.2200   20.1577    5.3794 H   0  0  0  0  0  0  0  0  0  0  0  0
   15.4113   22.8271    5.9364 C   0  0  0  0  0  0  0  0  0  0  0  0
   15.7971   22.0145    7.1172 C   0  0  0  0  0  0  0  0  0  0  0  0
   16.6437   20.9214    6.9732 C   0  0  0  0  0  0  0  0  0  0  0  0
   16.9817   20.1408    8.0805 C   0  0  0  0  0  0  0  0  0  0  0  0
   16.4685   20.4395    9.3538 C   0  0  0  0  0  0  0  0  0  0  0  0
   15.6310   21.5304    9.4764 C   0  0  0  0  0  0  0  0  0  0  0  0
   15.3010   22.3189    8.3426 C   0  0  0  0  0  0  0  0  0  0  0  0
   11.7969   25.6275    4.2269 C   0  0  0  0  0  0  0  0  0  0  0  0
   10.3269   25.8810    3.9390 C   0  0  0  0  0  0  0  0  0  0  0  0
    9.6881   25.3189    2.7952 C   0  0  0  0  0  0  0  0  0  0  0  0
    8.3169   25.5374    2.6106 C   0  0  0  0  0  0  0  0  0  0  0  0
    7.5580   26.2872    3.5115 C   0  0  0  0  0  0  0  0  0  0  0  0
    8.1674   26.8610    4.6325 C   0  0  0  0  0  0  0  0  0  0  0  0
    9.5510   26.6623    4.8626 C   0  0  0  0  0  0  0  0  0  0  0  0
   12.8766   21.5731    3.9672 C   0  0  0  0  0  0  0  0  0  0  0  0
   13.9653   21.3146    3.0017 O   0  0  0  0  0  0  0  0  0  0  0  0
   14.7020   20.1600    2.9744 C   0  0  0  0  0  0  0  0  0  0  0  0
   14.6616   19.2586    4.0458 C   0  0  0  0  0  0  0  0  0  0  0  0
   15.4050   18.0481    4.0193 C   0  0  0  0  0  0  0  0  0  0  0  0
   16.2163   17.7245    2.9087 C   0  0  0  0  0  0  0  0  0  0  0  0
   16.2704   18.6419    1.8317 C   0  0  0  0  0  0  0  0  0  0  0  0
   15.5002   19.8575    1.8787 C   0  0  0  0  0  0  0  0  0  0  0  0
   11.8004   24.3743    7.3828 C   0  0  0  0  0  0  0  0  0  0  0  0
   10.9645   24.7602    8.5229 O   0  0  0  0  0  0  0  0  0  0  0  0
   10.0644   25.7044    8.5223 C   0  0  0  0  0  0  0  0  0  0  0  0
    8.6830   25.3846    8.3352 C   0  0  0  0  0  0  0  0  0  0  0  0
    7.7314   26.4380    8.3132 C   0  0  0  0  0  0  0  0  0  0  0  0
    8.1580   27.7919    8.4862 C   0  0  0  0  0  0  0  0  0  0  0  0
    9.5221   28.1103    8.6899 C   0  0  0  0  0  0  0  0  0  0  0  0
   10.4689   27.0671    8.7021 C   0  0  0  0  0  0  0  0  0  0  0  0
  1  2  1  0  0  0
  1  7  1  0  0  0
  1 13  1  0  0  0
  2  3  1  0  0  0
  2  8  2  0  0  0
  3  4  1  0  0  0
  3 20  1  0  0  0
  4  5  1  0  0  0
  4 35  1  0  0  0
  5  6  1  0  0  0
  5  9  1  0  0  0
  6  7  1  0  0  0
  6 10  1  0  0  0
  7 27  1  0  0  0
 13 14  1  0  0  0
 14 15  2  0  0  0
 14 19  1  0  0  0
 15 16  1  0  0  0
 16 17  2  0  0  0
 17 18  1  0  0  0
 18 19  2  0  0  0
 20 21  1  0  0  0
 21 22  2  0  0  0
 21 26  1  0  0  0
 22 23  1  0  0  0
 23 24  2  0  0  0
 24 25  1  0  0  0
 25 26  2  0  0  0
 35 36  1  0  0  0
 36 37  1  0  0  0
 37 38  2  0  0  0
 37 42  1  0  0  0
 38 39  1  0  0  0
 39 40  2  0  0  0
 40 41  1  0  0  0
 41 42  2  0  0  0
 27 28  1  0  0  0
 28 29  1  0  0  0
 29 30  2  0  0  0
 29 34  1  0  0  0
 30 31  1  0  0  0
 31 32  2  0  0  0
 32 33  1  0  0  0
 33 34  2  0  0  0
  9 11  1  0  0  0
 10 12  1  0  0  0
M  END
> <minimizedAffinity>
-9.68029

$$$$
